gem5 Simulator System.  http://gem5.org
gem5 is copyrighted software; use the --copyright option for details.

gem5 compiled May  5 2023 12:51:51
gem5 started May  9 2023 18:06:24
gem5 executing on node4x10a.cs.rochester.edu, pid 26125
command line: /u/sgupta45/gem5-SALAM/build/ARM/gem5_xbar.opt --debug-flags=HWACC,CommInterface,LLVMInterface,StreamDma,NoncoherentDma,TickTimer,SchedulerStats --outdir=BM_ARM_OUT/comb_4_xbar/canny_4_deblur_4_gru_0_harris_4_lstm_0_scale_0_FCFS configs/SALAM/scheduler.py --mem-size=4GB --mem-type=LPDDR5_6400_1x16_BG_BL32 --kernel=/u/sgupta45/gem5-SALAM/benchmarks/scheduler/sw/bin_comb_4/canny_4_deblur_4_gru_0_harris_4_lstm_0_scale_0_FCFS.elf --vans-config-path=/u/sgupta45/VANS/config --disk-image=/u/sgupta45/gem5-SALAM/baremetal/common/fake.iso --machine-type=VExpress_GEM5_V1 --dtb-file=none --bare-metal --cpu-type=ex5_LITTLE --cpu-clock=1.6GHz --accpath=/u/sgupta45/gem5-SALAM/benchmarks --caches --cacheline_size=64 --l1d_size=32kB --l1d_assoc=4 --l1i_size=32kB --l1i_assoc=2

Global frequency set at 1000000000000 ticks per second
Cycle Counts Loaded!
Cycle Counts Loaded!
Cycle Counts Loaded!
Cycle Counts Loaded!
Cycle Counts Loaded!
Cycle Counts Loaded!
Cycle Counts Loaded!
Cycle Counts Loaded!
Cycle Counts Loaded!
Cycle Counts Loaded!
Cycle Counts Loaded!
**** REAL SIMULATION ****
528287500: global: Timer #2 started at tick 528287500
528727500: global: Timer #2 stopped at tick 528727500. Duration: 440000
530948125: global: Timer #2 started at tick 530948125
530995625: global: Timer #2 stopped at tick 530995625. Duration: 47500
533520625: global: Timer #2 started at tick 533520625
533636875: global: Timer #2 stopped at tick 533636875. Duration: 116250
536258125: global: Timer #2 started at tick 536258125
536295000: global: Timer #2 stopped at tick 536295000. Duration: 36875
538458125: global: Timer #2 started at tick 538458125
538581250: global: Timer #2 stopped at tick 538581250. Duration: 123125
542531875: global: Timer #2 started at tick 542531875
542576250: global: Timer #2 stopped at tick 542576250. Duration: 44375
546561875: global: Timer #2 started at tick 546561875
546598750: global: Timer #2 stopped at tick 546598750. Duration: 36875
550563125: global: Timer #2 started at tick 550563125
550681250: global: Timer #2 stopped at tick 550681250. Duration: 118125
553686250: global: Timer #2 started at tick 553686250
553723125: global: Timer #2 stopped at tick 553723125. Duration: 36875
556168125: global: Timer #2 started at tick 556168125
556205000: global: Timer #2 stopped at tick 556205000. Duration: 36875
558593750: global: Timer #2 started at tick 558593750
558729375: global: Timer #2 stopped at tick 558729375. Duration: 135625
561063750: global: Timer #2 started at tick 561063750
561100625: global: Timer #2 stopped at tick 561100625. Duration: 36875
567840875: system.acctest.isp0_dma: SRC:0x0000000082018a00, DST:0x0000000027000020, LEN:16900
568348750: global: Number of accelerators running = 1
571262875: system.acctest.isp0_dma: Transfer completed in 3.422 us
571793750: global: Timer #0 started at tick 571793750
573568750: global: Timer #0 stopped at tick 573568750. Duration: 1775000
573587500: global: Number of accelerators running = 1
********************************************************************************
system.acctest.isp0.compute
   ========= Performance Analysis =============
   Setup Time:                      0.125554seconds
   Simulation Time:                 342.478seconds
   System Clock:                    1GHz
   Transistor Latency:              1ns
   Runtime:                         34882 cycles
   Runtime:                         34.882 us
   Stalls:                          1 cycles
   Executed Nodes:                  34880 cycles

********************************************************************************
   ========= Performance Analysis =================
   Setup Time:                      1.25554e+08ns
   Simulation Time:                 3.42478e+11ns
   System Clock:                    1GHz
   Transistor Latency:              0ns
   Runtime:                         34882 cycles
   Runtime:                         3.4882e-06 seconds
   Stalls:                          1 cycles
       Load Only:                   0 cycles
       Store Only:                  1 cycles
       Compute Only:                0 cycles
       Compute & Store:             0 cycles
       Load & Store:                0 cycles
       Load & Compute:              0 cycles
       Load & Compute & Store:      0 cycles
   Executed Nodes:                  34880 cycles
       Load Only:                   0 cycles
       Store Only:                  1 cycles
       Compute Only:                3453 cycles
       Compute & Store:             19014 cycles
       Load & Store:                0 cycles
       Load & Compute:              2467 cycles
       Load & Compute & Store:      9945 cycles

   ========= Runtime FU's ========= (Max | Avg) ===
   Counter FU's:                      10 | 0.118075
   Integer Add/Sub FU's:              76 | 0.082082
   Integer Mul/Div FU's:              11 | 0.043888
   Integer Shifter FU's:              42 | 0.055974
   Integer Bitwise FU's:               4 | 0.059443
   Floating Point Float Add/Sub:      53 | 0.116839
   Floating Point Double Add/Sub:      0 | 0.000000
   Floating Point Float Mul/Div:      76 | 0.625626
   Floating Point Double Mul/Div:      0 | 0.000000
   0 Cycle Compare FU's:              85 | 0.664984
   GEP Instruction FU's:              33 | 0.117424
   Type Conversion FU's:             110 | 0.379700

   ========= Static FU's ==========================
   Counter FU's:                    0
   Integer Add/Sub FU's:            0
   Integer Mul/Div FU's:            0
   Integer Shifter FU's:            0
   Integer Bitwise FU's:            0
   Floating Point Float Add/Sub:    0
   Floating Point Double Add/Sub:   0
   Floating Point Float Mul/Div:    0
   Floating Point Double Mul/Div:   0
   0 Cycle Compare FU's:            0
   GEP Instruction FU's:            0
   Type Conversion FU's:            0
   Other:                           0

   ========= Pipeline Register Usage =============
   Total Number of Registers:       1620
   Max Register Usage Per Cycle:    151
   Avg Register Usage Per Cycle:    58.744711
   Avg Register Size (Bytes):       5.073357

   ========= Memory Configuration =================
   Cache Bus Ports:                 0
   Shared Cache Size:               0kB
   Local Bus Ports:                 0
   Private SPM Size:                112kB
   Private Read Ports:              0
   Private Write Ports:             0
   Private Read Bus Width:          64
   Private Write Bus Width:         64
       Memory Reads:                0
       Memory Writes:               0
   ========= Power Analysis ======================
   FU Leakage Power:                1.637787 mW 
   FU Dynamic Power:                9.655087 mW 
   FU Total Power:                  11.292874 mW 

   Registers Leakage Power:          0.021654 mW 
   Registers Dynamic Power:          3.085961 mW 
       Register Reads (Bits):        2049133
       Register Writes (Bits):       2049168
   Registers Total Power:            3.107615 mW

   SPM Leakage Power:               0.061081 mW
   SPM Read Dynamic Power:          11.103730 mW
   SPM Write Dynamic Power:         7.385230 mW
   SPM Total Power:                 18.550041 mW

   Cache Leakage Power:             0.000000 mW
   Cache Read Dynamic Power:        0.000000 mW
   Cache Write Dynamic Power:       0.000000 mW
   Cache Total Power:               0.000000 mW

   Accelerator Power:               14.400490 mW
   Accelerator Power (SPM):         32.950531 mW
   Accelerator Power (Cache):       14.400490 mW

   ========= Area Analysis =======================
   FU Area:                         176023.796875 um^2 (0.176024 mm^2)
   Register Area:                   1760.064941 um^2 (0.001760 mm^2)
   SPM Area:                        2165.394891 um^2 (0.002165 mm^2)
   Cache Area:                      0.000000 um^2 (0.000000 mm^2)

   Accelerator Area:                177783.859375 um^2 (0.177784 mm^2)
   Accelerator Area (SPM):          179949.254266 um^2 (0.179949 mm^2)
   Accelerator Area (Cache):        177783.859375 um^2 (0.177784 mm^2)

   ========= SPM Resizing  =======================
   SPM Optimized Leakage Power:     0.005964 mW
   SPM Opt Area:                    422.108128 um^2

607831250: global: Timer #0 started at tick 607831250
608202500: global: Timer #2 started at tick 608202500
608370625: global: Timer #2 stopped at tick 608370625. Duration: 168125
609149375: global: DAG ID = 0
609212500: global: Node ID = 0
609230625: global: Node deadline difference = -13517
609248750: global: Predicted memory time / byte = 0 us/byte
609266875: global: Predicted memory time = 0 us
609329375: global: Predicted memory time / byte = 0 us/byte
609347500: global: Predicted memory time = 0 us
609365625: global: Predicted memory time / byte = 0 us/byte
609383750: global: Predicted memory time = 0 us
609401875: global: Predicted memory time / byte = 0 us/byte
609464375: global: Predicted memory time = 0 us
610923750: system.acctest.grayscale0_dma: SRC:0x0000000027004224, DST:0x0000000025000020, LEN:49152
616008750: system.acctest.isp0_dma: SRC:0x00000000820cdec0, DST:0x0000000027000020, LEN:16900
616267500: global: Timer #0 stopped at tick 616267500. Duration: 8436250
616281875: global: Number of accelerators running = 2
618424750: system.acctest.grayscale0_dma: Transfer completed in 7.501 us
618516875: global: Timer #0 started at tick 618516875
619193750: system.acctest.isp0_dma: Transfer completed in 3.185 us
619683125: global: Timer #0 stopped at tick 619683125. Duration: 1166250
619697500: global: Number of accelerators running = 2
619817500: global: Timer #0 started at tick 619817500
620645625: global: Timer #0 stopped at tick 620645625. Duration: 828125
620660000: global: Number of accelerators running = 2
********************************************************************************
system.acctest.grayscale0.compute
   ========= Performance Analysis =============
   Setup Time:                      0.005276seconds
   Simulation Time:                 229.069874seconds
   System Clock:                    1.000000GHz
   Transistor Latency:              1ns
   Runtime:                         10263 cycles
   Runtime:                         10.263000 us
   Stalls:                          1 cycles
   Executed Nodes:                  10261 cycles

********************************************************************************
   ========= Performance Analysis =================
   Setup Time:                      5275517.000000ns
   Simulation Time:                 229069874368.000000ns
   System Clock:                    1.000000GHz
   Transistor Latency:              0ns
   Runtime:                         10263 cycles
   Runtime:                         0.000001 seconds
   Stalls:                          1 cycles
       Load Only:                   0 cycles
       Store Only:                  1 cycles
       Compute Only:                0 cycles
       Compute & Store:             0 cycles
       Load & Store:                0 cycles
       Load & Compute:              0 cycles
       Load & Compute & Store:      0 cycles
   Executed Nodes:                  10261 cycles
       Load Only:                   0 cycles
       Store Only:                  1 cycles
       Compute Only:                88 cycles
       Compute & Store:             344 cycles
       Load & Store:                0 cycles
       Load & Compute:              1981 cycles
       Load & Compute & Store:      7847 cycles

   ========= Runtime FU's ========= (Max | Avg) ===
   Counter FU's:                      24 | 0.199556
   Integer Add/Sub FU's:               0 | 0.000000
   Integer Mul/Div FU's:               8 | 0.199552
   Integer Shifter FU's:               0 | 0.000000
   Integer Bitwise FU's:               1 | 0.000097
   Floating Point Float Add/Sub:      49 | 0.114264
   Floating Point Double Add/Sub:      0 | 0.000000
   Floating Point Float Mul/Div:      42 | 0.114129
   Floating Point Double Mul/Div:      0 | 0.000000
   0 Cycle Compare FU's:               9 | 0.066626
   GEP Instruction FU's:              36 | 0.177452
   Type Conversion FU's:              76 | 0.401969

   ========= Static FU's ==========================
   Counter FU's:                    0
   Integer Add/Sub FU's:            0
   Integer Mul/Div FU's:            0
   Integer Shifter FU's:            0
   Integer Bitwise FU's:            0
   Floating Point Float Add/Sub:    0
   Floating Point Double Add/Sub:   0
   Floating Point Float Mul/Div:    0
   Floating Point Double Mul/Div:   0
   0 Cycle Compare FU's:            0
   GEP Instruction FU's:            0
   Type Conversion FU's:            0
   Other:                           0

   ========= Pipeline Register Usage =============
   Total Number of Registers:       235
   Max Register Usage Per Cycle:    90
   Avg Register Usage Per Cycle:    33.924291
   Avg Register Size (Bytes):       5.841147

   ========= Memory Configuration =================
   Cache Bus Ports:                 0
   Shared Cache Size:               0kB
   Local Bus Ports:                 0
   Private SPM Size:                176kB
   Private Read Ports:              0
   Private Write Ports:             0
   Private Read Bus Width:          64
   Private Write Bus Width:         64
       Memory Reads:                0
       Memory Writes:               0
   ========= Power Analysis ======================
   FU Leakage Power:                1.178269 mW 
   FU Dynamic Power:                0.617392 mW 
   FU Total Power:                  1.795662 mW 

   Registers Leakage Power:          0.014185 mW 
   Registers Dynamic Power:          0.101057 mW 
       Register Reads (Bits):        348165
       Register Writes (Bits):       348168
   Registers Total Power:            0.115242 mW

   SPM Leakage Power:               0.089881 mW
   SPM Read Dynamic Power:          6.997296 mW
   SPM Write Dynamic Power:         2.062375 mW
   SPM Total Power:                 9.149552 mW

   Cache Leakage Power:             0.000000 mW
   Cache Read Dynamic Power:        0.000000 mW
   Cache Write Dynamic Power:       0.000000 mW
   Cache Total Power:               0.000000 mW

   Accelerator Power:               1.910904 mW
   Accelerator Power (SPM):         11.060456 mW
   Accelerator Power (Cache):       1.910904 mW

   ========= Area Analysis =======================
   FU Area:                         143348.187500 um^2 (0.143348 mm^2)
   Register Area:                   1152.968140 um^2 (0.001153 mm^2)
   SPM Area:                        3573.642862 um^2 (0.003574 mm^2)
   Cache Area:                      0.000000 um^2 (0.000000 mm^2)

   Accelerator Area:                144501.156250 um^2 (0.144501 mm^2)
   Accelerator Area (SPM):          148074.799112 um^2 (0.148075 mm^2)
   Accelerator Area (Cache):        144501.156250 um^2 (0.144501 mm^2)

   ========= SPM Resizing  =======================
   SPM Optimized Leakage Power:     0.003633 mW
   SPM Opt Area:                    364.024374 um^2

629627500: global: Timer #0 started at tick 629627500
629910000: global: Timer #2 started at tick 629910000
629946875: global: Timer #2 stopped at tick 629946875. Duration: 36875
630283125: global: DAG ID = 0
630296875: global: Node ID = 1
630310000: global: Node deadline difference = -13533
630322500: global: Predicted memory time / byte = 0 us/byte
630335000: global: Predicted memory time = 0 us
630347500: global: Predicted memory time / byte = 0 us/byte
630360000: global: Predicted memory time = 0 us
630372500: global: Predicted memory time / byte = 0 us/byte
630385000: global: Predicted memory time = 0 us
630397500: global: Predicted memory time / byte = 0 us/byte
630410000: global: Predicted memory time = 0 us
631855875: system.acctest.convolution0_dma: SRC:0x000000002500c020, DST:0x0000000022000020, LEN:65536
632240625: global: Timer #0 stopped at tick 632240625. Duration: 2613125
632255000: global: Number of accelerators running = 2
640096875: system.acctest.convolution0_dma: Transfer completed in 8.241 us
640189375: global: Timer #0 started at tick 640189375
641610875: system.acctest.convolution0_dma: SRC:0x0000000082038f40, DST:0x0000000022030020, LEN:100
641707875: system.acctest.convolution0_dma: Transfer completed in 0.097 us
641923125: global: Timer #0 stopped at tick 641923125. Duration: 1733750
641937500: global: Number of accelerators running = 2
642051875: global: Timer #0 started at tick 642051875
643428750: global: Timer #0 stopped at tick 643428750. Duration: 1376875
643443125: global: Number of accelerators running = 2
********************************************************************************
system.acctest.isp0.compute
   ========= Performance Analysis =============
   Setup Time:                      0.151493seconds
   Simulation Time:                 562.637458seconds
   System Clock:                    1.000000GHz
   Transistor Latency:              1ns
   Runtime:                         34882 cycles
   Runtime:                         34.882000 us
   Stalls:                          1 cycles
   Executed Nodes:                  34880 cycles

********************************************************************************
   ========= Performance Analysis =================
   Setup Time:                      151492703.000000ns
   Simulation Time:                 562637457612.000000ns
   System Clock:                    1.000000GHz
   Transistor Latency:              0ns
   Runtime:                         34882 cycles
   Runtime:                         0.000003 seconds
   Stalls:                          1 cycles
       Load Only:                   0 cycles
       Store Only:                  1 cycles
       Compute Only:                0 cycles
       Compute & Store:             0 cycles
       Load & Store:                0 cycles
       Load & Compute:              0 cycles
       Load & Compute & Store:      0 cycles
   Executed Nodes:                  34880 cycles
       Load Only:                   0 cycles
       Store Only:                  1 cycles
       Compute Only:                3453 cycles
       Compute & Store:             19014 cycles
       Load & Store:                0 cycles
       Load & Compute:              2467 cycles
       Load & Compute & Store:      9945 cycles

   ========= Runtime FU's ========= (Max | Avg) ===
   Counter FU's:                      10 | 0.118075
   Integer Add/Sub FU's:              76 | 0.082082
   Integer Mul/Div FU's:              11 | 0.043888
   Integer Shifter FU's:              42 | 0.055974
   Integer Bitwise FU's:               4 | 0.059443
   Floating Point Float Add/Sub:      53 | 0.116839
   Floating Point Double Add/Sub:      0 | 0.000000
   Floating Point Float Mul/Div:      76 | 0.625626
   Floating Point Double Mul/Div:      0 | 0.000000
   0 Cycle Compare FU's:              85 | 0.664984
   GEP Instruction FU's:              33 | 0.117424
   Type Conversion FU's:             110 | 0.379700

   ========= Static FU's ==========================
   Counter FU's:                    0
   Integer Add/Sub FU's:            0
   Integer Mul/Div FU's:            0
   Integer Shifter FU's:            0
   Integer Bitwise FU's:            0
   Floating Point Float Add/Sub:    0
   Floating Point Double Add/Sub:   0
   Floating Point Float Mul/Div:    0
   Floating Point Double Mul/Div:   0
   0 Cycle Compare FU's:            0
   GEP Instruction FU's:            0
   Type Conversion FU's:            0
   Other:                           0

   ========= Pipeline Register Usage =============
   Total Number of Registers:       1620
   Max Register Usage Per Cycle:    151
   Avg Register Usage Per Cycle:    58.744711
   Avg Register Size (Bytes):       5.073357

   ========= Memory Configuration =================
   Cache Bus Ports:                 0
   Shared Cache Size:               0kB
   Local Bus Ports:                 0
   Private SPM Size:                112kB
   Private Read Ports:              0
   Private Write Ports:             0
   Private Read Bus Width:          64
   Private Write Bus Width:         64
       Memory Reads:                0
       Memory Writes:               0
   ========= Power Analysis ======================
   FU Leakage Power:                1.637787 mW 
   FU Dynamic Power:                9.655087 mW 
   FU Total Power:                  11.292874 mW 

   Registers Leakage Power:          0.021654 mW 
   Registers Dynamic Power:          3.085961 mW 
       Register Reads (Bits):        2049133
       Register Writes (Bits):       2049168
   Registers Total Power:            3.107615 mW

   SPM Leakage Power:               0.061081 mW
   SPM Read Dynamic Power:          15.102444 mW
   SPM Write Dynamic Power:         10.618341 mW
   SPM Total Power:                 25.781867 mW

   Cache Leakage Power:             0.000000 mW
   Cache Read Dynamic Power:        0.000000 mW
   Cache Write Dynamic Power:       0.000000 mW
   Cache Total Power:               0.000000 mW

   Accelerator Power:               14.400490 mW
   Accelerator Power (SPM):         40.182357 mW
   Accelerator Power (Cache):       14.400490 mW

   ========= Area Analysis =======================
   FU Area:                         176023.796875 um^2 (0.176024 mm^2)
   Register Area:                   1760.064941 um^2 (0.001760 mm^2)
   SPM Area:                        2165.394891 um^2 (0.002165 mm^2)
   Cache Area:                      0.000000 um^2 (0.000000 mm^2)

   Accelerator Area:                177783.859375 um^2 (0.177784 mm^2)
   Accelerator Area (SPM):          179949.254266 um^2 (0.179949 mm^2)
   Accelerator Area (Cache):        177783.859375 um^2 (0.177784 mm^2)

   ========= SPM Resizing  =======================
   SPM Optimized Leakage Power:     0.005964 mW
   SPM Opt Area:                    422.108128 um^2

655377500: global: Timer #0 started at tick 655377500
655630000: global: Timer #2 started at tick 655630000
655666875: global: Timer #2 stopped at tick 655666875. Duration: 36875
655985000: global: DAG ID = 1
655998750: global: Node ID = 0
656011875: global: Node deadline difference = -13471
656024375: global: Predicted memory time / byte = 0 us/byte
656036875: global: Predicted memory time = 0 us
656049375: global: Predicted memory time / byte = 0 us/byte
656061875: global: Predicted memory time = 0 us
656074375: global: Predicted memory time / byte = 0 us/byte
656086875: global: Predicted memory time = 0 us
656099375: global: Predicted memory time / byte = 0 us/byte
656111875: global: Predicted memory time = 0 us
656931625: system.acctest.grayscale0_dma: SRC:0x0000000027004224, DST:0x0000000025000020, LEN:49152
661329500: system.acctest.isp0_dma: SRC:0x0000000082183380, DST:0x0000000027000020, LEN:16900
661523750: global: Timer #0 stopped at tick 661523750. Duration: 6146250
661538125: global: Number of accelerators running = 3
664576500: system.acctest.isp0_dma: Transfer completed in 3.247 us
664660625: global: Timer #0 started at tick 664660625
664679625: system.acctest.grayscale0_dma: Transfer completed in 7.748 us
665500625: global: Timer #0 stopped at tick 665500625. Duration: 840000
665515000: global: Number of accelerators running = 3
665632500: global: Timer #0 started at tick 665632500
666370000: global: Timer #0 stopped at tick 666370000. Duration: 737500
666384375: global: Number of accelerators running = 3
********************************************************************************
system.acctest.grayscale0.compute
   ========= Performance Analysis =============
   Setup Time:                      0.005588seconds
   Simulation Time:                 276.249554seconds
   System Clock:                    1.000000GHz
   Transistor Latency:              1ns
   Runtime:                         10263 cycles
   Runtime:                         10.263000 us
   Stalls:                          1 cycles
   Executed Nodes:                  10261 cycles

********************************************************************************
   ========= Performance Analysis =================
   Setup Time:                      5587815.000000ns
   Simulation Time:                 276249553582.000000ns
   System Clock:                    1.000000GHz
   Transistor Latency:              0ns
   Runtime:                         10263 cycles
   Runtime:                         0.000001 seconds
   Stalls:                          1 cycles
       Load Only:                   0 cycles
       Store Only:                  1 cycles
       Compute Only:                0 cycles
       Compute & Store:             0 cycles
       Load & Store:                0 cycles
       Load & Compute:              0 cycles
       Load & Compute & Store:      0 cycles
   Executed Nodes:                  10261 cycles
       Load Only:                   0 cycles
       Store Only:                  1 cycles
       Compute Only:                88 cycles
       Compute & Store:             344 cycles
       Load & Store:                0 cycles
       Load & Compute:              1981 cycles
       Load & Compute & Store:      7847 cycles

   ========= Runtime FU's ========= (Max | Avg) ===
   Counter FU's:                      24 | 0.199556
   Integer Add/Sub FU's:               0 | 0.000000
   Integer Mul/Div FU's:               8 | 0.199552
   Integer Shifter FU's:               0 | 0.000000
   Integer Bitwise FU's:               1 | 0.000097
   Floating Point Float Add/Sub:      49 | 0.114264
   Floating Point Double Add/Sub:      0 | 0.000000
   Floating Point Float Mul/Div:      42 | 0.114129
   Floating Point Double Mul/Div:      0 | 0.000000
   0 Cycle Compare FU's:               9 | 0.066626
   GEP Instruction FU's:              36 | 0.177452
   Type Conversion FU's:              76 | 0.401969

   ========= Static FU's ==========================
   Counter FU's:                    0
   Integer Add/Sub FU's:            0
   Integer Mul/Div FU's:            0
   Integer Shifter FU's:            0
   Integer Bitwise FU's:            0
   Floating Point Float Add/Sub:    0
   Floating Point Double Add/Sub:   0
   Floating Point Float Mul/Div:    0
   Floating Point Double Mul/Div:   0
   0 Cycle Compare FU's:            0
   GEP Instruction FU's:            0
   Type Conversion FU's:            0
   Other:                           0

   ========= Pipeline Register Usage =============
   Total Number of Registers:       235
   Max Register Usage Per Cycle:    90
   Avg Register Usage Per Cycle:    33.924291
   Avg Register Size (Bytes):       5.841147

   ========= Memory Configuration =================
   Cache Bus Ports:                 0
   Shared Cache Size:               0kB
   Local Bus Ports:                 0
   Private SPM Size:                176kB
   Private Read Ports:              0
   Private Write Ports:             0
   Private Read Bus Width:          64
   Private Write Bus Width:         64
       Memory Reads:                0
       Memory Writes:               0
   ========= Power Analysis ======================
   FU Leakage Power:                1.178269 mW 
   FU Dynamic Power:                0.617392 mW 
   FU Total Power:                  1.795662 mW 

   Registers Leakage Power:          0.014185 mW 
   Registers Dynamic Power:          0.101057 mW 
       Register Reads (Bits):        348165
       Register Writes (Bits):       348168
   Registers Total Power:            0.115242 mW

   SPM Leakage Power:               0.089881 mW
   SPM Read Dynamic Power:          10.232207 mW
   SPM Write Dynamic Power:         5.980668 mW
   SPM Total Power:                 16.302756 mW

   Cache Leakage Power:             0.000000 mW
   Cache Read Dynamic Power:        0.000000 mW
   Cache Write Dynamic Power:       0.000000 mW
   Cache Total Power:               0.000000 mW

   Accelerator Power:               1.910904 mW
   Accelerator Power (SPM):         18.213660 mW
   Accelerator Power (Cache):       1.910904 mW

   ========= Area Analysis =======================
   FU Area:                         143348.187500 um^2 (0.143348 mm^2)
   Register Area:                   1152.968140 um^2 (0.001153 mm^2)
   SPM Area:                        3573.642862 um^2 (0.003574 mm^2)
   Cache Area:                      0.000000 um^2 (0.000000 mm^2)

   Accelerator Area:                144501.156250 um^2 (0.144501 mm^2)
   Accelerator Area (SPM):          148074.799112 um^2 (0.148075 mm^2)
   Accelerator Area (Cache):        144501.156250 um^2 (0.144501 mm^2)

   ========= SPM Resizing  =======================
   SPM Optimized Leakage Power:     0.003633 mW
   SPM Opt Area:                    364.024374 um^2

676432500: global: Timer #0 started at tick 676432500
676695625: global: Timer #2 started at tick 676695625
676814375: global: Timer #2 stopped at tick 676814375. Duration: 118750
677038125: global: DAG ID = 1
677051875: global: Node ID = 1
677065000: global: Node deadline difference = -13486
677077500: global: Predicted memory time / byte = 0 us/byte
677090000: global: Predicted memory time = 0 us
677102500: global: Predicted memory time / byte = 0 us/byte
677115000: global: Predicted memory time = 0 us
677127500: global: Predicted memory time / byte = 0 us/byte
677140000: global: Predicted memory time = 0 us
677152500: global: Predicted memory time / byte = 0 us/byte
677165000: global: Predicted memory time = 0 us
678121625: system.acctest.convolution1_dma: SRC:0x000000002500c020, DST:0x0000000022100020, LEN:65536
678399375: global: Timer #0 stopped at tick 678399375. Duration: 1966875
678413750: global: Number of accelerators running = 3
686362625: system.acctest.convolution1_dma: Transfer completed in 8.241 us
686455000: global: Timer #0 started at tick 686455000
687350875: system.acctest.convolution1_dma: SRC:0x00000000820ee400, DST:0x0000000022130020, LEN:100
687447875: system.acctest.convolution1_dma: Transfer completed in 0.097 us
687600000: global: Timer #0 stopped at tick 687600000. Duration: 1145000
687614375: global: Number of accelerators running = 3
687736250: global: Timer #0 started at tick 687736250
689066875: global: Timer #0 stopped at tick 689066875. Duration: 1330625
689081250: global: Number of accelerators running = 3
********************************************************************************
system.acctest.isp0.compute
   ========= Performance Analysis =============
   Setup Time:                      0.437437seconds
   Simulation Time:                 624.948708seconds
   System Clock:                    1.000000GHz
   Transistor Latency:              1ns
   Runtime:                         34882 cycles
   Runtime:                         34.882000 us
   Stalls:                          1 cycles
   Executed Nodes:                  34880 cycles

********************************************************************************
   ========= Performance Analysis =================
   Setup Time:                      437437326.000000ns
   Simulation Time:                 624948708420.000000ns
   System Clock:                    1.000000GHz
   Transistor Latency:              0ns
   Runtime:                         34882 cycles
   Runtime:                         0.000003 seconds
   Stalls:                          1 cycles
       Load Only:                   0 cycles
       Store Only:                  1 cycles
       Compute Only:                0 cycles
       Compute & Store:             0 cycles
       Load & Store:                0 cycles
       Load & Compute:              0 cycles
       Load & Compute & Store:      0 cycles
   Executed Nodes:                  34880 cycles
       Load Only:                   0 cycles
       Store Only:                  1 cycles
       Compute Only:                3453 cycles
       Compute & Store:             19014 cycles
       Load & Store:                0 cycles
       Load & Compute:              2467 cycles
       Load & Compute & Store:      9945 cycles

   ========= Runtime FU's ========= (Max | Avg) ===
   Counter FU's:                      10 | 0.118075
   Integer Add/Sub FU's:              76 | 0.082082
   Integer Mul/Div FU's:              11 | 0.043888
   Integer Shifter FU's:              42 | 0.055974
   Integer Bitwise FU's:               4 | 0.059443
   Floating Point Float Add/Sub:      53 | 0.116839
   Floating Point Double Add/Sub:      0 | 0.000000
   Floating Point Float Mul/Div:      76 | 0.625626
   Floating Point Double Mul/Div:      0 | 0.000000
   0 Cycle Compare FU's:              85 | 0.664984
   GEP Instruction FU's:              33 | 0.117424
   Type Conversion FU's:             110 | 0.379700

   ========= Static FU's ==========================
   Counter FU's:                    0
   Integer Add/Sub FU's:            0
   Integer Mul/Div FU's:            0
   Integer Shifter FU's:            0
   Integer Bitwise FU's:            0
   Floating Point Float Add/Sub:    0
   Floating Point Double Add/Sub:   0
   Floating Point Float Mul/Div:    0
   Floating Point Double Mul/Div:   0
   0 Cycle Compare FU's:            0
   GEP Instruction FU's:            0
   Type Conversion FU's:            0
   Other:                           0

   ========= Pipeline Register Usage =============
   Total Number of Registers:       1620
   Max Register Usage Per Cycle:    151
   Avg Register Usage Per Cycle:    58.744711
   Avg Register Size (Bytes):       5.073357

   ========= Memory Configuration =================
   Cache Bus Ports:                 0
   Shared Cache Size:               0kB
   Local Bus Ports:                 0
   Private SPM Size:                112kB
   Private Read Ports:              0
   Private Write Ports:             0
   Private Read Bus Width:          64
   Private Write Bus Width:         64
       Memory Reads:                0
       Memory Writes:               0
   ========= Power Analysis ======================
   FU Leakage Power:                1.637787 mW 
   FU Dynamic Power:                9.655087 mW 
   FU Total Power:                  11.292874 mW 

   Registers Leakage Power:          0.021654 mW 
   Registers Dynamic Power:          3.085961 mW 
       Register Reads (Bits):        2049133
       Register Writes (Bits):       2049168
   Registers Total Power:            3.107615 mW

   SPM Leakage Power:               0.061081 mW
   SPM Read Dynamic Power:          18.884297 mW
   SPM Write Dynamic Power:         13.423581 mW
   SPM Total Power:                 32.368959 mW

   Cache Leakage Power:             0.000000 mW
   Cache Read Dynamic Power:        0.000000 mW
   Cache Write Dynamic Power:       0.000000 mW
   Cache Total Power:               0.000000 mW

   Accelerator Power:               14.400490 mW
   Accelerator Power (SPM):         46.769449 mW
   Accelerator Power (Cache):       14.400490 mW

   ========= Area Analysis =======================
   FU Area:                         176023.796875 um^2 (0.176024 mm^2)
   Register Area:                   1760.064941 um^2 (0.001760 mm^2)
   SPM Area:                        2165.394891 um^2 (0.002165 mm^2)
   Cache Area:                      0.000000 um^2 (0.000000 mm^2)

   Accelerator Area:                177783.859375 um^2 (0.177784 mm^2)
   Accelerator Area (SPM):          179949.254266 um^2 (0.179949 mm^2)
   Accelerator Area (Cache):        177783.859375 um^2 (0.177784 mm^2)

   ========= SPM Resizing  =======================
   SPM Optimized Leakage Power:     0.005964 mW
   SPM Opt Area:                    422.108128 um^2

700227500: global: Timer #0 started at tick 700227500
700600000: global: Timer #2 started at tick 700600000
700644375: global: Timer #2 stopped at tick 700644375. Duration: 44375
700928125: global: DAG ID = 2
700941875: global: Node ID = 0
700955000: global: Node deadline difference = -13426
700967500: global: Predicted memory time / byte = 0 us/byte
700980000: global: Predicted memory time = 0 us
700992500: global: Predicted memory time / byte = 0 us/byte
701005000: global: Predicted memory time = 0 us
701017500: global: Predicted memory time / byte = 0 us/byte
701030000: global: Predicted memory time = 0 us
701042500: global: Predicted memory time / byte = 0 us/byte
701055000: global: Predicted memory time = 0 us
701868750: system.acctest.grayscale0_dma: SRC:0x0000000027010224, DST:0x0000000025000020, LEN:49152
706203750: system.acctest.isp0_dma: SRC:0x0000000082238840, DST:0x0000000027000020, LEN:16900
706398125: global: Timer #0 stopped at tick 706398125. Duration: 6170625
706412500: global: Number of accelerators running = 4
709418750: system.acctest.isp0_dma: Transfer completed in 3.215 us
709502500: global: Timer #0 started at tick 709502500
709569750: system.acctest.grayscale0_dma: Transfer completed in 7.701 us
710311875: global: Timer #0 stopped at tick 710311875. Duration: 809375
710326250: global: Number of accelerators running = 4
710448125: global: Timer #0 started at tick 710448125
711130000: global: Timer #0 stopped at tick 711130000. Duration: 681875
711144375: global: Number of accelerators running = 4
********************************************************************************
system.acctest.grayscale0.compute
   ========= Performance Analysis =============
   Setup Time:                      0.005632seconds
   Simulation Time:                 275.866528seconds
   System Clock:                    1.000000GHz
   Transistor Latency:              1ns
   Runtime:                         10263 cycles
   Runtime:                         10.263000 us
   Stalls:                          1 cycles
   Executed Nodes:                  10261 cycles

********************************************************************************
   ========= Performance Analysis =================
   Setup Time:                      5632246.000000ns
   Simulation Time:                 275866528144.000000ns
   System Clock:                    1.000000GHz
   Transistor Latency:              0ns
   Runtime:                         10263 cycles
   Runtime:                         0.000001 seconds
   Stalls:                          1 cycles
       Load Only:                   0 cycles
       Store Only:                  1 cycles
       Compute Only:                0 cycles
       Compute & Store:             0 cycles
       Load & Store:                0 cycles
       Load & Compute:              0 cycles
       Load & Compute & Store:      0 cycles
   Executed Nodes:                  10261 cycles
       Load Only:                   0 cycles
       Store Only:                  1 cycles
       Compute Only:                88 cycles
       Compute & Store:             344 cycles
       Load & Store:                0 cycles
       Load & Compute:              1981 cycles
       Load & Compute & Store:      7847 cycles

   ========= Runtime FU's ========= (Max | Avg) ===
   Counter FU's:                      24 | 0.199556
   Integer Add/Sub FU's:               0 | 0.000000
   Integer Mul/Div FU's:               8 | 0.199552
   Integer Shifter FU's:               0 | 0.000000
   Integer Bitwise FU's:               1 | 0.000097
   Floating Point Float Add/Sub:      49 | 0.114264
   Floating Point Double Add/Sub:      0 | 0.000000
   Floating Point Float Mul/Div:      42 | 0.114129
   Floating Point Double Mul/Div:      0 | 0.000000
   0 Cycle Compare FU's:               9 | 0.066626
   GEP Instruction FU's:              36 | 0.177452
   Type Conversion FU's:              76 | 0.401969

   ========= Static FU's ==========================
   Counter FU's:                    0
   Integer Add/Sub FU's:            0
   Integer Mul/Div FU's:            0
   Integer Shifter FU's:            0
   Integer Bitwise FU's:            0
   Floating Point Float Add/Sub:    0
   Floating Point Double Add/Sub:   0
   Floating Point Float Mul/Div:    0
   Floating Point Double Mul/Div:   0
   0 Cycle Compare FU's:            0
   GEP Instruction FU's:            0
   Type Conversion FU's:            0
   Other:                           0

   ========= Pipeline Register Usage =============
   Total Number of Registers:       235
   Max Register Usage Per Cycle:    90
   Avg Register Usage Per Cycle:    33.924291
   Avg Register Size (Bytes):       5.841147

   ========= Memory Configuration =================
   Cache Bus Ports:                 0
   Shared Cache Size:               0kB
   Local Bus Ports:                 0
   Private SPM Size:                176kB
   Private Read Ports:              0
   Private Write Ports:             0
   Private Read Bus Width:          64
   Private Write Bus Width:         64
       Memory Reads:                0
       Memory Writes:               0
   ========= Power Analysis ======================
   FU Leakage Power:                1.178269 mW 
   FU Dynamic Power:                0.617392 mW 
   FU Total Power:                  1.795662 mW 

   Registers Leakage Power:          0.014185 mW 
   Registers Dynamic Power:          0.101057 mW 
       Register Reads (Bits):        348165
       Register Writes (Bits):       348168
   Registers Total Power:            0.115242 mW

   SPM Leakage Power:               0.089881 mW
   SPM Read Dynamic Power:          12.841663 mW
   SPM Write Dynamic Power:         7.385230 mW
   SPM Total Power:                 20.316774 mW

   Cache Leakage Power:             0.000000 mW
   Cache Read Dynamic Power:        0.000000 mW
   Cache Write Dynamic Power:       0.000000 mW
   Cache Total Power:               0.000000 mW

   Accelerator Power:               1.910904 mW
   Accelerator Power (SPM):         22.227678 mW
   Accelerator Power (Cache):       1.910904 mW

   ========= Area Analysis =======================
   FU Area:                         143348.187500 um^2 (0.143348 mm^2)
   Register Area:                   1152.968140 um^2 (0.001153 mm^2)
   SPM Area:                        3573.642862 um^2 (0.003574 mm^2)
   Cache Area:                      0.000000 um^2 (0.000000 mm^2)

   Accelerator Area:                144501.156250 um^2 (0.144501 mm^2)
   Accelerator Area (SPM):          148074.799112 um^2 (0.148075 mm^2)
   Accelerator Area (Cache):        144501.156250 um^2 (0.144501 mm^2)

   ========= SPM Resizing  =======================
   SPM Optimized Leakage Power:     0.003633 mW
   SPM Opt Area:                    364.024374 um^2

721251250: global: Timer #0 started at tick 721251250
721570000: global: Timer #2 started at tick 721570000
721606875: global: Timer #2 stopped at tick 721606875. Duration: 36875
735061625: system.acctest.grayscale0_dma: SRC:0x000000002500c020, DST:0x0000000082193740, LEN:65536
735503125: global: Timer #0 stopped at tick 735503125. Duration: 14251875
735517500: global: Number of accelerators running = 4
741339625: system.acctest.grayscale0_dma: Transfer completed in 6.278 us
741423125: global: Timer #0 started at tick 741423125
741652500: global: DAG ID = 2
741671875: global: Node ID = 1
741740000: global: Node deadline difference = -16488
741758125: global: Predicted memory time / byte = 0 us/byte
741776250: global: Predicted memory time = 0 us
741794375: global: Predicted memory time / byte = 0 us/byte
741812500: global: Predicted memory time = 0 us
741830625: global: Predicted memory time / byte = 0 us/byte
741848750: global: Predicted memory time = 0 us
741866875: global: Predicted memory time / byte = 0 us/byte
741885000: global: Predicted memory time = 0 us
742038125: global: Timer #0 stopped at tick 742038125. Duration: 615000
742052500: global: Number of accelerators running = 3
********************************************************************************
system.acctest.isp0.compute
   ========= Performance Analysis =============
   Setup Time:                      0.575854seconds
   Simulation Time:                 646.841424seconds
   System Clock:                    1.000000GHz
   Transistor Latency:              1ns
   Runtime:                         34882 cycles
   Runtime:                         34.882000 us
   Stalls:                          1 cycles
   Executed Nodes:                  34880 cycles

********************************************************************************
   ========= Performance Analysis =================
   Setup Time:                      575854158.000000ns
   Simulation Time:                 646841423615.000000ns
   System Clock:                    1.000000GHz
   Transistor Latency:              0ns
   Runtime:                         34882 cycles
   Runtime:                         0.000003 seconds
   Stalls:                          1 cycles
       Load Only:                   0 cycles
       Store Only:                  1 cycles
       Compute Only:                0 cycles
       Compute & Store:             0 cycles
       Load & Store:                0 cycles
       Load & Compute:              0 cycles
       Load & Compute & Store:      0 cycles
   Executed Nodes:                  34880 cycles
       Load Only:                   0 cycles
       Store Only:                  1 cycles
       Compute Only:                3453 cycles
       Compute & Store:             19014 cycles
       Load & Store:                0 cycles
       Load & Compute:              2467 cycles
       Load & Compute & Store:      9945 cycles

   ========= Runtime FU's ========= (Max | Avg) ===
   Counter FU's:                      10 | 0.118075
   Integer Add/Sub FU's:              76 | 0.082082
   Integer Mul/Div FU's:              11 | 0.043888
   Integer Shifter FU's:              42 | 0.055974
   Integer Bitwise FU's:               4 | 0.059443
   Floating Point Float Add/Sub:      53 | 0.116839
   Floating Point Double Add/Sub:      0 | 0.000000
   Floating Point Float Mul/Div:      76 | 0.625626
   Floating Point Double Mul/Div:      0 | 0.000000
   0 Cycle Compare FU's:              85 | 0.664984
   GEP Instruction FU's:              33 | 0.117424
   Type Conversion FU's:             110 | 0.379700

   ========= Static FU's ==========================
   Counter FU's:                    0
   Integer Add/Sub FU's:            0
   Integer Mul/Div FU's:            0
   Integer Shifter FU's:            0
   Integer Bitwise FU's:            0
   Floating Point Float Add/Sub:    0
   Floating Point Double Add/Sub:   0
   Floating Point Float Mul/Div:    0
   Floating Point Double Mul/Div:   0
   0 Cycle Compare FU's:            0
   GEP Instruction FU's:            0
   Type Conversion FU's:            0
   Other:                           0

   ========= Pipeline Register Usage =============
   Total Number of Registers:       1620
   Max Register Usage Per Cycle:    151
   Avg Register Usage Per Cycle:    58.744711
   Avg Register Size (Bytes):       5.073357

   ========= Memory Configuration =================
   Cache Bus Ports:                 0
   Shared Cache Size:               0kB
   Local Bus Ports:                 0
   Private SPM Size:                112kB
   Private Read Ports:              0
   Private Write Ports:             0
   Private Read Bus Width:          64
   Private Write Bus Width:         64
       Memory Reads:                0
       Memory Writes:               0
   ========= Power Analysis ======================
   FU Leakage Power:                1.637787 mW 
   FU Dynamic Power:                9.655087 mW 
   FU Total Power:                  11.292874 mW 

   Registers Leakage Power:          0.021654 mW 
   Registers Dynamic Power:          3.085961 mW 
       Register Reads (Bits):        2049133
       Register Writes (Bits):       2049168
   Registers Total Power:            3.107615 mW

   SPM Leakage Power:               0.061081 mW
   SPM Read Dynamic Power:          22.020363 mW
   SPM Write Dynamic Power:         14.973773 mW
   SPM Total Power:                 37.055217 mW

   Cache Leakage Power:             0.000000 mW
   Cache Read Dynamic Power:        0.000000 mW
   Cache Write Dynamic Power:       0.000000 mW
   Cache Total Power:               0.000000 mW

   Accelerator Power:               14.400490 mW
   Accelerator Power (SPM):         51.455707 mW
   Accelerator Power (Cache):       14.400490 mW

   ========= Area Analysis =======================
   FU Area:                         176023.796875 um^2 (0.176024 mm^2)
   Register Area:                   1760.064941 um^2 (0.001760 mm^2)
   SPM Area:                        2165.394891 um^2 (0.002165 mm^2)
   Cache Area:                      0.000000 um^2 (0.000000 mm^2)

   Accelerator Area:                177783.859375 um^2 (0.177784 mm^2)
   Accelerator Area (SPM):          179949.254266 um^2 (0.179949 mm^2)
   Accelerator Area (Cache):        177783.859375 um^2 (0.177784 mm^2)

   ========= SPM Resizing  =======================
   SPM Optimized Leakage Power:     0.005964 mW
   SPM Opt Area:                    422.108128 um^2

745067500: global: Timer #0 started at tick 745067500
745373125: global: Timer #2 started at tick 745373125
745668750: global: Timer #2 stopped at tick 745668750. Duration: 295625
745981875: global: DAG ID = 3
745995625: global: Node ID = 0
746008750: global: Node deadline difference = -13381
746021250: global: Predicted memory time / byte = 0 us/byte
746033750: global: Predicted memory time = 0 us
746046250: global: Predicted memory time / byte = 0 us/byte
746058750: global: Predicted memory time = 0 us
746071250: global: Predicted memory time / byte = 0 us/byte
746083750: global: Predicted memory time = 0 us
746096250: global: Predicted memory time / byte = 0 us/byte
746108750: global: Predicted memory time = 0 us
746927375: system.acctest.grayscale0_dma: SRC:0x0000000027004224, DST:0x0000000025000020, LEN:49152
751334500: system.acctest.isp0_dma: SRC:0x000000008232de80, DST:0x0000000027000020, LEN:16900
751528750: global: Timer #0 stopped at tick 751528750. Duration: 6461250
751543125: global: Number of accelerators running = 4
754533500: system.acctest.isp0_dma: Transfer completed in 3.199 us
754608750: global: Timer #0 started at tick 754608750
754652375: system.acctest.grayscale0_dma: Transfer completed in 7.725 us
755460000: global: Timer #0 stopped at tick 755460000. Duration: 851250
755474375: global: Number of accelerators running = 4
755591250: global: Timer #0 started at tick 755591250
756285000: global: Timer #0 stopped at tick 756285000. Duration: 693750
756299375: global: Number of accelerators running = 4
********************************************************************************
system.acctest.grayscale0.compute
   ========= Performance Analysis =============
   Setup Time:                      0.021214seconds
   Simulation Time:                 282.730073seconds
   System Clock:                    1.000000GHz
   Transistor Latency:              1ns
   Runtime:                         10263 cycles
   Runtime:                         10.263000 us
   Stalls:                          1 cycles
   Executed Nodes:                  10261 cycles

********************************************************************************
   ========= Performance Analysis =================
   Setup Time:                      21214285.000000ns
   Simulation Time:                 282730073332.000000ns
   System Clock:                    1.000000GHz
   Transistor Latency:              0ns
   Runtime:                         10263 cycles
   Runtime:                         0.000001 seconds
   Stalls:                          1 cycles
       Load Only:                   0 cycles
       Store Only:                  1 cycles
       Compute Only:                0 cycles
       Compute & Store:             0 cycles
       Load & Store:                0 cycles
       Load & Compute:              0 cycles
       Load & Compute & Store:      0 cycles
   Executed Nodes:                  10261 cycles
       Load Only:                   0 cycles
       Store Only:                  1 cycles
       Compute Only:                88 cycles
       Compute & Store:             344 cycles
       Load & Store:                0 cycles
       Load & Compute:              1981 cycles
       Load & Compute & Store:      7847 cycles

   ========= Runtime FU's ========= (Max | Avg) ===
   Counter FU's:                      24 | 0.199556
   Integer Add/Sub FU's:               0 | 0.000000
   Integer Mul/Div FU's:               8 | 0.199552
   Integer Shifter FU's:               0 | 0.000000
   Integer Bitwise FU's:               1 | 0.000097
   Floating Point Float Add/Sub:      49 | 0.114264
   Floating Point Double Add/Sub:      0 | 0.000000
   Floating Point Float Mul/Div:      42 | 0.114129
   Floating Point Double Mul/Div:      0 | 0.000000
   0 Cycle Compare FU's:               9 | 0.066626
   GEP Instruction FU's:              36 | 0.177452
   Type Conversion FU's:              76 | 0.401969

   ========= Static FU's ==========================
   Counter FU's:                    0
   Integer Add/Sub FU's:            0
   Integer Mul/Div FU's:            0
   Integer Shifter FU's:            0
   Integer Bitwise FU's:            0
   Floating Point Float Add/Sub:    0
   Floating Point Double Add/Sub:   0
   Floating Point Float Mul/Div:    0
   Floating Point Double Mul/Div:   0
   0 Cycle Compare FU's:            0
   GEP Instruction FU's:            0
   Type Conversion FU's:            0
   Other:                           0

   ========= Pipeline Register Usage =============
   Total Number of Registers:       235
   Max Register Usage Per Cycle:    90
   Avg Register Usage Per Cycle:    33.924291
   Avg Register Size (Bytes):       5.841147

   ========= Memory Configuration =================
   Cache Bus Ports:                 0
   Shared Cache Size:               0kB
   Local Bus Ports:                 0
   Private SPM Size:                176kB
   Private Read Ports:              0
   Private Write Ports:             0
   Private Read Bus Width:          64
   Private Write Bus Width:         64
       Memory Reads:                0
       Memory Writes:               0
   ========= Power Analysis ======================
   FU Leakage Power:                1.178269 mW 
   FU Dynamic Power:                0.617392 mW 
   FU Total Power:                  1.795662 mW 

   Registers Leakage Power:          0.014185 mW 
   Registers Dynamic Power:          0.101057 mW 
       Register Reads (Bits):        348165
       Register Writes (Bits):       348168
   Registers Total Power:            0.115242 mW

   SPM Leakage Power:               0.089881 mW
   SPM Read Dynamic Power:          14.197905 mW
   SPM Write Dynamic Power:         8.746336 mW
   SPM Total Power:                 23.034123 mW

   Cache Leakage Power:             0.000000 mW
   Cache Read Dynamic Power:        0.000000 mW
   Cache Write Dynamic Power:       0.000000 mW
   Cache Total Power:               0.000000 mW

   Accelerator Power:               1.910904 mW
   Accelerator Power (SPM):         24.945026 mW
   Accelerator Power (Cache):       1.910904 mW

   ========= Area Analysis =======================
   FU Area:                         143348.187500 um^2 (0.143348 mm^2)
   Register Area:                   1152.968140 um^2 (0.001153 mm^2)
   SPM Area:                        3573.642862 um^2 (0.003574 mm^2)
   Cache Area:                      0.000000 um^2 (0.000000 mm^2)

   Accelerator Area:                144501.156250 um^2 (0.144501 mm^2)
   Accelerator Area (SPM):          148074.799112 um^2 (0.148075 mm^2)
   Accelerator Area (Cache):        144501.156250 um^2 (0.144501 mm^2)

   ========= SPM Resizing  =======================
   SPM Optimized Leakage Power:     0.003633 mW
   SPM Opt Area:                    364.024374 um^2

766384375: global: Timer #0 started at tick 766384375
766691250: global: Timer #2 started at tick 766691250
766723750: global: Timer #2 stopped at tick 766723750. Duration: 32500
779891625: system.acctest.grayscale0_dma: SRC:0x000000002500c020, DST:0x0000000082248c00, LEN:65536
780252500: global: Timer #0 stopped at tick 780252500. Duration: 13868125
780266875: global: Number of accelerators running = 4
786242625: system.acctest.grayscale0_dma: Transfer completed in 6.351 us
786318750: global: Timer #0 started at tick 786318750
786492500: global: DAG ID = 3
786506250: global: Node ID = 1
786525625: global: Node deadline difference = -16443
786538125: global: Predicted memory time / byte = 0 us/byte
786550625: global: Predicted memory time = 0 us
786563125: global: Predicted memory time / byte = 0 us/byte
786575625: global: Predicted memory time = 0 us
786588125: global: Predicted memory time / byte = 0 us/byte
786600625: global: Predicted memory time = 0 us
786613125: global: Predicted memory time / byte = 0 us/byte
786625625: global: Predicted memory time = 0 us
786733750: global: Timer #0 stopped at tick 786733750. Duration: 415000
786747500: global: Number of accelerators running = 3
********************************************************************************
system.acctest.isp0.compute
   ========= Performance Analysis =============
   Setup Time:                      0.626456seconds
   Simulation Time:                 651.044335seconds
   System Clock:                    1.000000GHz
   Transistor Latency:              1ns
   Runtime:                         34882 cycles
   Runtime:                         34.882000 us
   Stalls:                          1 cycles
   Executed Nodes:                  34880 cycles

********************************************************************************
   ========= Performance Analysis =================
   Setup Time:                      626455905.000000ns
   Simulation Time:                 651044335139.000000ns
   System Clock:                    1.000000GHz
   Transistor Latency:              0ns
   Runtime:                         34882 cycles
   Runtime:                         0.000003 seconds
   Stalls:                          1 cycles
       Load Only:                   0 cycles
       Store Only:                  1 cycles
       Compute Only:                0 cycles
       Compute & Store:             0 cycles
       Load & Store:                0 cycles
       Load & Compute:              0 cycles
       Load & Compute & Store:      0 cycles
   Executed Nodes:                  34880 cycles
       Load Only:                   0 cycles
       Store Only:                  1 cycles
       Compute Only:                3453 cycles
       Compute & Store:             19014 cycles
       Load & Store:                0 cycles
       Load & Compute:              2467 cycles
       Load & Compute & Store:      9945 cycles

   ========= Runtime FU's ========= (Max | Avg) ===
   Counter FU's:                      10 | 0.118075
   Integer Add/Sub FU's:              76 | 0.082082
   Integer Mul/Div FU's:              11 | 0.043888
   Integer Shifter FU's:              42 | 0.055974
   Integer Bitwise FU's:               4 | 0.059443
   Floating Point Float Add/Sub:      53 | 0.116839
   Floating Point Double Add/Sub:      0 | 0.000000
   Floating Point Float Mul/Div:      76 | 0.625626
   Floating Point Double Mul/Div:      0 | 0.000000
   0 Cycle Compare FU's:              85 | 0.664984
   GEP Instruction FU's:              33 | 0.117424
   Type Conversion FU's:             110 | 0.379700

   ========= Static FU's ==========================
   Counter FU's:                    0
   Integer Add/Sub FU's:            0
   Integer Mul/Div FU's:            0
   Integer Shifter FU's:            0
   Integer Bitwise FU's:            0
   Floating Point Float Add/Sub:    0
   Floating Point Double Add/Sub:   0
   Floating Point Float Mul/Div:    0
   Floating Point Double Mul/Div:   0
   0 Cycle Compare FU's:            0
   GEP Instruction FU's:            0
   Type Conversion FU's:            0
   Other:                           0

   ========= Pipeline Register Usage =============
   Total Number of Registers:       1620
   Max Register Usage Per Cycle:    151
   Avg Register Usage Per Cycle:    58.744711
   Avg Register Size (Bytes):       5.073357

   ========= Memory Configuration =================
   Cache Bus Ports:                 0
   Shared Cache Size:               0kB
   Local Bus Ports:                 0
   Private SPM Size:                112kB
   Private Read Ports:              0
   Private Write Ports:             0
   Private Read Bus Width:          64
   Private Write Bus Width:         64
       Memory Reads:                0
       Memory Writes:               0
   ========= Power Analysis ======================
   FU Leakage Power:                1.637787 mW 
   FU Dynamic Power:                9.655087 mW 
   FU Total Power:                  11.292874 mW 

   Registers Leakage Power:          0.021654 mW 
   Registers Dynamic Power:          3.085961 mW 
       Register Reads (Bits):        2049133
       Register Writes (Bits):       2049168
   Registers Total Power:            3.107615 mW

   SPM Leakage Power:               0.061081 mW
   SPM Read Dynamic Power:          24.677817 mW
   SPM Write Dynamic Power:         16.524603 mW
   SPM Total Power:                 41.263502 mW

   Cache Leakage Power:             0.000000 mW
   Cache Read Dynamic Power:        0.000000 mW
   Cache Write Dynamic Power:       0.000000 mW
   Cache Total Power:               0.000000 mW

   Accelerator Power:               14.400490 mW
   Accelerator Power (SPM):         55.663992 mW
   Accelerator Power (Cache):       14.400490 mW

   ========= Area Analysis =======================
   FU Area:                         176023.796875 um^2 (0.176024 mm^2)
   Register Area:                   1760.064941 um^2 (0.001760 mm^2)
   SPM Area:                        2165.394891 um^2 (0.002165 mm^2)
   Cache Area:                      0.000000 um^2 (0.000000 mm^2)

   Accelerator Area:                177783.859375 um^2 (0.177784 mm^2)
   Accelerator Area (SPM):          179949.254266 um^2 (0.179949 mm^2)
   Accelerator Area (Cache):        177783.859375 um^2 (0.177784 mm^2)

   ========= SPM Resizing  =======================
   SPM Optimized Leakage Power:     0.005964 mW
   SPM Opt Area:                    422.108128 um^2

790168125: global: Timer #0 started at tick 790168125
790421250: global: Timer #2 started at tick 790421250
790522500: global: Timer #2 stopped at tick 790522500. Duration: 101250
790808750: global: DAG ID = 4
790822500: global: Node ID = 0
790835625: global: Node deadline difference = -67
790848125: global: Predicted memory time / byte = 0 us/byte
790860625: global: Predicted memory time = 0 us
790873125: global: Predicted memory time / byte = 0 us/byte
790885625: global: Predicted memory time = 0 us
790898125: global: Predicted memory time / byte = 0 us/byte
790910625: global: Predicted memory time = 0 us
790923125: global: Predicted memory time / byte = 0 us/byte
790935625: global: Predicted memory time = 0 us
791738750: system.acctest.grayscale0_dma: SRC:0x0000000027010224, DST:0x0000000025000020, LEN:49152
796220875: system.acctest.isp0_dma: SRC:0x0000000082390040, DST:0x0000000027000020, LEN:16900
796410000: global: Timer #0 stopped at tick 796410000. Duration: 6241875
796420000: global: Number of accelerators running = 4
799192875: system.acctest.isp0_dma: Transfer completed in 2.972 us
799268750: global: Timer #0 started at tick 799268750
799503750: system.acctest.grayscale0_dma: Transfer completed in 7.765 us
800103125: global: Timer #0 stopped at tick 800103125. Duration: 834375
800117500: global: Number of accelerators running = 4
800235625: global: Timer #0 started at tick 800235625
800930625: global: Timer #0 stopped at tick 800930625. Duration: 695000
800945000: global: Number of accelerators running = 4
********************************************************************************
system.acctest.grayscale0.compute
   ========= Performance Analysis =============
   Setup Time:                      0.029451seconds
   Simulation Time:                 281.656361seconds
   System Clock:                    1.000000GHz
   Transistor Latency:              1ns
   Runtime:                         10263 cycles
   Runtime:                         10.263000 us
   Stalls:                          1 cycles
   Executed Nodes:                  10261 cycles

********************************************************************************
   ========= Performance Analysis =================
   Setup Time:                      29451153.000000ns
   Simulation Time:                 281656361499.000000ns
   System Clock:                    1.000000GHz
   Transistor Latency:              0ns
   Runtime:                         10263 cycles
   Runtime:                         0.000001 seconds
   Stalls:                          1 cycles
       Load Only:                   0 cycles
       Store Only:                  1 cycles
       Compute Only:                0 cycles
       Compute & Store:             0 cycles
       Load & Store:                0 cycles
       Load & Compute:              0 cycles
       Load & Compute & Store:      0 cycles
   Executed Nodes:                  10261 cycles
       Load Only:                   0 cycles
       Store Only:                  1 cycles
       Compute Only:                88 cycles
       Compute & Store:             344 cycles
       Load & Store:                0 cycles
       Load & Compute:              1981 cycles
       Load & Compute & Store:      7847 cycles

   ========= Runtime FU's ========= (Max | Avg) ===
   Counter FU's:                      24 | 0.199556
   Integer Add/Sub FU's:               0 | 0.000000
   Integer Mul/Div FU's:               8 | 0.199552
   Integer Shifter FU's:               0 | 0.000000
   Integer Bitwise FU's:               1 | 0.000097
   Floating Point Float Add/Sub:      49 | 0.114264
   Floating Point Double Add/Sub:      0 | 0.000000
   Floating Point Float Mul/Div:      42 | 0.114129
   Floating Point Double Mul/Div:      0 | 0.000000
   0 Cycle Compare FU's:               9 | 0.066626
   GEP Instruction FU's:              36 | 0.177452
   Type Conversion FU's:              76 | 0.401969

   ========= Static FU's ==========================
   Counter FU's:                    0
   Integer Add/Sub FU's:            0
   Integer Mul/Div FU's:            0
   Integer Shifter FU's:            0
   Integer Bitwise FU's:            0
   Floating Point Float Add/Sub:    0
   Floating Point Double Add/Sub:   0
   Floating Point Float Mul/Div:    0
   Floating Point Double Mul/Div:   0
   0 Cycle Compare FU's:            0
   GEP Instruction FU's:            0
   Type Conversion FU's:            0
   Other:                           0

   ========= Pipeline Register Usage =============
   Total Number of Registers:       235
   Max Register Usage Per Cycle:    90
   Avg Register Usage Per Cycle:    33.924291
   Avg Register Size (Bytes):       5.841147

   ========= Memory Configuration =================
   Cache Bus Ports:                 0
   Shared Cache Size:               0kB
   Local Bus Ports:                 0
   Private SPM Size:                176kB
   Private Read Ports:              0
   Private Write Ports:             0
   Private Read Bus Width:          64
   Private Write Bus Width:         64
       Memory Reads:                0
       Memory Writes:               0
   ========= Power Analysis ======================
   FU Leakage Power:                1.178269 mW 
   FU Dynamic Power:                0.617392 mW 
   FU Total Power:                  1.795662 mW 

   Registers Leakage Power:          0.014185 mW 
   Registers Dynamic Power:          0.101057 mW 
       Register Reads (Bits):        348165
       Register Writes (Bits):       348168
   Registers Total Power:            0.115242 mW

   SPM Leakage Power:               0.089881 mW
   SPM Read Dynamic Power:          15.554785 mW
   SPM Write Dynamic Power:         9.682262 mW
   SPM Total Power:                 25.326928 mW

   Cache Leakage Power:             0.000000 mW
   Cache Read Dynamic Power:        0.000000 mW
   Cache Write Dynamic Power:       0.000000 mW
   Cache Total Power:               0.000000 mW

   Accelerator Power:               1.910904 mW
   Accelerator Power (SPM):         27.237831 mW
   Accelerator Power (Cache):       1.910904 mW

   ========= Area Analysis =======================
   FU Area:                         143348.187500 um^2 (0.143348 mm^2)
   Register Area:                   1152.968140 um^2 (0.001153 mm^2)
   SPM Area:                        3573.642862 um^2 (0.003574 mm^2)
   Cache Area:                      0.000000 um^2 (0.000000 mm^2)

   Accelerator Area:                144501.156250 um^2 (0.144501 mm^2)
   Accelerator Area (SPM):          148074.799112 um^2 (0.148075 mm^2)
   Accelerator Area (Cache):        144501.156250 um^2 (0.144501 mm^2)

   ========= SPM Resizing  =======================
   SPM Optimized Leakage Power:     0.003633 mW
   SPM Opt Area:                    364.024374 um^2

811022500: global: Timer #0 started at tick 811022500
811277500: global: Timer #2 started at tick 811277500
811312500: global: Timer #2 stopped at tick 811312500. Duration: 35000
825092375: system.acctest.grayscale0_dma: SRC:0x000000002500c020, DST:0x000000008233e240, LEN:65536
825440000: global: Timer #0 stopped at tick 825440000. Duration: 14417500
825453750: global: Number of accelerators running = 4
831440375: system.acctest.grayscale0_dma: Transfer completed in 6.348 us
831515625: global: Timer #0 started at tick 831515625
831687500: global: DAG ID = 4
831701250: global: Node ID = 1
831720625: global: Node deadline difference = -16398
831733125: global: Predicted memory time / byte = 0 us/byte
831745625: global: Predicted memory time = 0 us
831758125: global: Predicted memory time / byte = 0 us/byte
831770625: global: Predicted memory time = 0 us
831783125: global: Predicted memory time / byte = 0 us/byte
831795625: global: Predicted memory time = 0 us
831808125: global: Predicted memory time / byte = 0 us/byte
831820625: global: Predicted memory time = 0 us
831928750: global: Timer #0 stopped at tick 831928750. Duration: 413125
831942500: global: Number of accelerators running = 3
********************************************************************************
system.acctest.isp0.compute
   ========= Performance Analysis =============
   Setup Time:                      0.704760seconds
   Simulation Time:                 661.390091seconds
   System Clock:                    1.000000GHz
   Transistor Latency:              1ns
   Runtime:                         34882 cycles
   Runtime:                         34.882000 us
   Stalls:                          1 cycles
   Executed Nodes:                  34880 cycles

********************************************************************************
   ========= Performance Analysis =================
   Setup Time:                      704759578.000000ns
   Simulation Time:                 661390091147.000000ns
   System Clock:                    1.000000GHz
   Transistor Latency:              0ns
   Runtime:                         34882 cycles
   Runtime:                         0.000003 seconds
   Stalls:                          1 cycles
       Load Only:                   0 cycles
       Store Only:                  1 cycles
       Compute Only:                0 cycles
       Compute & Store:             0 cycles
       Load & Store:                0 cycles
       Load & Compute:              0 cycles
       Load & Compute & Store:      0 cycles
   Executed Nodes:                  34880 cycles
       Load Only:                   0 cycles
       Store Only:                  1 cycles
       Compute Only:                3453 cycles
       Compute & Store:             19014 cycles
       Load & Store:                0 cycles
       Load & Compute:              2467 cycles
       Load & Compute & Store:      9945 cycles

   ========= Runtime FU's ========= (Max | Avg) ===
   Counter FU's:                      10 | 0.118075
   Integer Add/Sub FU's:              76 | 0.082082
   Integer Mul/Div FU's:              11 | 0.043888
   Integer Shifter FU's:              42 | 0.055974
   Integer Bitwise FU's:               4 | 0.059443
   Floating Point Float Add/Sub:      53 | 0.116839
   Floating Point Double Add/Sub:      0 | 0.000000
   Floating Point Float Mul/Div:      76 | 0.625626
   Floating Point Double Mul/Div:      0 | 0.000000
   0 Cycle Compare FU's:              85 | 0.664984
   GEP Instruction FU's:              33 | 0.117424
   Type Conversion FU's:             110 | 0.379700

   ========= Static FU's ==========================
   Counter FU's:                    0
   Integer Add/Sub FU's:            0
   Integer Mul/Div FU's:            0
   Integer Shifter FU's:            0
   Integer Bitwise FU's:            0
   Floating Point Float Add/Sub:    0
   Floating Point Double Add/Sub:   0
   Floating Point Float Mul/Div:    0
   Floating Point Double Mul/Div:   0
   0 Cycle Compare FU's:            0
   GEP Instruction FU's:            0
   Type Conversion FU's:            0
   Other:                           0

   ========= Pipeline Register Usage =============
   Total Number of Registers:       1620
   Max Register Usage Per Cycle:    151
   Avg Register Usage Per Cycle:    58.744711
   Avg Register Size (Bytes):       5.073357

   ========= Memory Configuration =================
   Cache Bus Ports:                 0
   Shared Cache Size:               0kB
   Local Bus Ports:                 0
   Private SPM Size:                112kB
   Private Read Ports:              0
   Private Write Ports:             0
   Private Read Bus Width:          64
   Private Write Bus Width:         64
       Memory Reads:                0
       Memory Writes:               0
   ========= Power Analysis ======================
   FU Leakage Power:                1.637787 mW 
   FU Dynamic Power:                9.655087 mW 
   FU Total Power:                  11.292874 mW 

   Registers Leakage Power:          0.021654 mW 
   Registers Dynamic Power:          3.085961 mW 
       Register Reads (Bits):        2049133
       Register Writes (Bits):       2049168
   Registers Total Power:            3.107615 mW

   SPM Leakage Power:               0.061081 mW
   SPM Read Dynamic Power:          26.303286 mW
   SPM Write Dynamic Power:         18.122507 mW
   SPM Total Power:                 44.486874 mW

   Cache Leakage Power:             0.000000 mW
   Cache Read Dynamic Power:        0.000000 mW
   Cache Write Dynamic Power:       0.000000 mW
   Cache Total Power:               0.000000 mW

   Accelerator Power:               14.400490 mW
   Accelerator Power (SPM):         58.887364 mW
   Accelerator Power (Cache):       14.400490 mW

   ========= Area Analysis =======================
   FU Area:                         176023.796875 um^2 (0.176024 mm^2)
   Register Area:                   1760.064941 um^2 (0.001760 mm^2)
   SPM Area:                        2165.394891 um^2 (0.002165 mm^2)
   Cache Area:                      0.000000 um^2 (0.000000 mm^2)

   Accelerator Area:                177783.859375 um^2 (0.177784 mm^2)
   Accelerator Area (SPM):          179949.254266 um^2 (0.179949 mm^2)
   Accelerator Area (Cache):        177783.859375 um^2 (0.177784 mm^2)

   ========= SPM Resizing  =======================
   SPM Optimized Leakage Power:     0.005964 mW
   SPM Opt Area:                    422.108128 um^2

834816250: global: Timer #0 started at tick 834816250
835080000: global: Timer #2 started at tick 835080000
835124375: global: Timer #2 stopped at tick 835124375. Duration: 44375
835423750: global: DAG ID = 5
835437500: global: Node ID = 0
835450625: global: Node deadline difference = -22
835463125: global: Predicted memory time / byte = 0 us/byte
835475625: global: Predicted memory time = 0 us
835488125: global: Predicted memory time / byte = 0 us/byte
835500625: global: Predicted memory time = 0 us
835513125: global: Predicted memory time / byte = 0 us/byte
835525625: global: Predicted memory time = 0 us
835538125: global: Predicted memory time / byte = 0 us/byte
835550625: global: Predicted memory time = 0 us
836360875: system.acctest.grayscale0_dma: SRC:0x0000000027004224, DST:0x0000000025000020, LEN:49152
840643750: system.acctest.isp0_dma: SRC:0x00000000823f2200, DST:0x0000000027000020, LEN:16900
840833125: global: Timer #0 stopped at tick 840833125. Duration: 6016875
840843125: global: Number of accelerators running = 4
843875750: system.acctest.isp0_dma: Transfer completed in 3.232 us
843951875: global: Timer #0 started at tick 843951875
844082875: system.acctest.grayscale0_dma: Transfer completed in 7.722 us
844775000: global: Timer #0 stopped at tick 844775000. Duration: 823125
844789375: global: Number of accelerators running = 4
844906250: global: Timer #0 started at tick 844906250
845575000: global: Timer #0 stopped at tick 845575000. Duration: 668750
845588750: global: Number of accelerators running = 4
********************************************************************************
system.acctest.grayscale0.compute
   ========= Performance Analysis =============
   Setup Time:                      0.028300seconds
   Simulation Time:                 274.028478seconds
   System Clock:                    1.000000GHz
   Transistor Latency:              1ns
   Runtime:                         10263 cycles
   Runtime:                         10.263000 us
   Stalls:                          1 cycles
   Executed Nodes:                  10261 cycles

********************************************************************************
   ========= Performance Analysis =================
   Setup Time:                      28300415.000000ns
   Simulation Time:                 274028477835.000000ns
   System Clock:                    1.000000GHz
   Transistor Latency:              0ns
   Runtime:                         10263 cycles
   Runtime:                         0.000001 seconds
   Stalls:                          1 cycles
       Load Only:                   0 cycles
       Store Only:                  1 cycles
       Compute Only:                0 cycles
       Compute & Store:             0 cycles
       Load & Store:                0 cycles
       Load & Compute:              0 cycles
       Load & Compute & Store:      0 cycles
   Executed Nodes:                  10261 cycles
       Load Only:                   0 cycles
       Store Only:                  1 cycles
       Compute Only:                88 cycles
       Compute & Store:             344 cycles
       Load & Store:                0 cycles
       Load & Compute:              1981 cycles
       Load & Compute & Store:      7847 cycles

   ========= Runtime FU's ========= (Max | Avg) ===
   Counter FU's:                      24 | 0.199556
   Integer Add/Sub FU's:               0 | 0.000000
   Integer Mul/Div FU's:               8 | 0.199552
   Integer Shifter FU's:               0 | 0.000000
   Integer Bitwise FU's:               1 | 0.000097
   Floating Point Float Add/Sub:      49 | 0.114264
   Floating Point Double Add/Sub:      0 | 0.000000
   Floating Point Float Mul/Div:      42 | 0.114129
   Floating Point Double Mul/Div:      0 | 0.000000
   0 Cycle Compare FU's:               9 | 0.066626
   GEP Instruction FU's:              36 | 0.177452
   Type Conversion FU's:              76 | 0.401969

   ========= Static FU's ==========================
   Counter FU's:                    0
   Integer Add/Sub FU's:            0
   Integer Mul/Div FU's:            0
   Integer Shifter FU's:            0
   Integer Bitwise FU's:            0
   Floating Point Float Add/Sub:    0
   Floating Point Double Add/Sub:   0
   Floating Point Float Mul/Div:    0
[...]
       Compute & Store:             0 cycles
       Load & Store:                0 cycles
       Load & Compute:              0 cycles
       Load & Compute & Store:      0 cycles
   Executed Nodes:                  1545604 cycles
       Load Only:                   0 cycles
       Store Only:                  0 cycles
       Compute Only:                1127565 cycles
       Compute & Store:             16286 cycles
       Load & Store:                0 cycles
       Load & Compute:              401656 cycles
       Load & Compute & Store:      97 cycles

   ========= Runtime FU's ========= (Max | Avg) ===
   Counter FU's:                       3 | 0.112298
   Integer Add/Sub FU's:               4 | 0.211564
   Integer Mul/Div FU's:               1 | 0.052505
   Integer Shifter FU's:              10 | 0.005268
   Integer Bitwise FU's:               2 | 0.184266
   Floating Point Float Add/Sub:      12 | 0.086774
   Floating Point Double Add/Sub:      0 | 0.000000
   Floating Point Float Mul/Div:      11 | 0.024436
   Floating Point Double Mul/Div:      0 | 0.000000
   0 Cycle Compare FU's:              40 | 0.145688
   GEP Instruction FU's:               4 | 0.132683
   Type Conversion FU's:               7 | 0.186618

   ========= Static FU's ==========================
   Counter FU's:                    0
   Integer Add/Sub FU's:            0
   Integer Mul/Div FU's:            0
   Integer Shifter FU's:            0
   Integer Bitwise FU's:            0
   Floating Point Float Add/Sub:    0
   Floating Point Double Add/Sub:   0
   Floating Point Float Mul/Div:    0
   Floating Point Double Mul/Div:   0
   0 Cycle Compare FU's:            0
   GEP Instruction FU's:            0
   Type Conversion FU's:            0
   Other:                           0

   ========= Pipeline Register Usage =============
   Total Number of Registers:       1702
   Max Register Usage Per Cycle:    32
   Avg Register Usage Per Cycle:    6.348300
   Avg Register Size (Bytes):       5.569123

   ========= Memory Configuration =================
   Cache Bus Ports:                 0
   Shared Cache Size:               0kB
   Local Bus Ports:                 0
   Private SPM Size:                192kB
   Private Read Ports:              0
   Private Write Ports:             0
   Private Read Bus Width:          64
   Private Write Bus Width:         64
       Memory Reads:                0
       Memory Writes:               0
   ========= Power Analysis ======================
   FU Leakage Power:                0.303695 mW 
   FU Dynamic Power:                2753.057861 mW 
   FU Total Power:                  2753.361572 mW 

   Registers Leakage Power:          0.002459 mW 
   Registers Dynamic Power:          75.251404 mW 
       Register Reads (Bits):        9811964
       Register Writes (Bits):       10049727
   Registers Total Power:            75.253860 mW

   SPM Leakage Power:               0.078311 mW
   SPM Read Dynamic Power:          60.673733 mW
   SPM Write Dynamic Power:         10.012484 mW
   SPM Total Power:                 70.764528 mW

   Cache Leakage Power:             0.000000 mW
   Cache Read Dynamic Power:        0.000000 mW
   Cache Write Dynamic Power:       0.000000 mW
   Cache Total Power:               0.000000 mW

   Accelerator Power:               2828.615479 mW
   Accelerator Power (SPM):         2899.380006 mW
   Accelerator Power (Cache):       2828.615479 mW

   ========= Area Analysis =======================
   FU Area:                         37377.027344 um^2 (0.037377 mm^2)
   Register Area:                   199.868011 um^2 (0.000200 mm^2)
   SPM Area:                        1748.188735 um^2 (0.001748 mm^2)
   Cache Area:                      0.000000 um^2 (0.000000 mm^2)

   Accelerator Area:                37576.894531 um^2 (0.037577 mm^2)
   Accelerator Area (SPM):          39325.083267 um^2 (0.039325 mm^2)
   Accelerator Area (Cache):        37576.894531 um^2 (0.037577 mm^2)

   ========= SPM Resizing  =======================
   SPM Optimized Leakage Power:     0.002053 mW
   SPM Opt Area:                    145.024971 um^2

51154040875: system.acctest.elem_matrix0_dma: SRC:0x00000000823e2080, DST:0x0000000024000020, LEN:65536
51154262500: global: Timer #0 stopped at tick 51154262500. Duration: 14318750
51154275625: global: Number of accelerators running = 2
51154393125: global: Timer #0 started at tick 51154393125
51154663750: global: Timer #2 started at tick 51154663750
51154781250: global: Timer #2 stopped at tick 51154781250. Duration: 117500
51155085000: global: DAG ID = 7
51155098750: global: Node ID = 20
51155111875: global: Node deadline difference = 33983
51155124375: global: Predicted memory time / byte = 0 us/byte
51155136875: global: Predicted memory time = 0 us
51155149375: global: Predicted memory time / byte = 0 us/byte
51155161875: global: Predicted memory time = 0 us
51155174375: global: Predicted memory time / byte = 0 us/byte
51155186875: global: Predicted memory time = 0 us
51155199375: global: Predicted memory time / byte = 0 us/byte
51155211875: global: Predicted memory time = 0 us
51166039875: system.acctest.elem_matrix0_dma: Transfer completed in 11.999 us
51168682375: system.acctest.elem_matrix1_dma: SRC:0x0000000082444240, DST:0x0000000024100020, LEN:65536
51168897500: global: Timer #0 stopped at tick 51168897500. Duration: 14504375
51168910625: global: Number of accelerators running = 2
51169028125: global: Timer #0 started at tick 51169028125
51169888750: system.acctest.elem_matrix0_dma: SRC:0x0000000022110020, DST:0x0000000024010020, LEN:65536
51170118125: global: Timer #0 stopped at tick 51170118125. Duration: 1090000
51170132500: global: Number of accelerators running = 2
51178129750: system.acctest.elem_matrix0_dma: Transfer completed in 8.241 us
51178205625: global: Timer #0 started at tick 51178205625
51179541250: global: Timer #0 stopped at tick 51179541250. Duration: 1335625
51179555625: global: Number of accelerators running = 2
51180875375: system.acctest.elem_matrix1_dma: Transfer completed in 12.193 us
51180960625: global: Timer #0 started at tick 51180960625
51181825875: system.acctest.elem_matrix1_dma: SRC:0x0000000022020020, DST:0x0000000024110020, LEN:65536
51182046250: global: Timer #0 stopped at tick 51182046250. Duration: 1085625
51182060625: global: Number of accelerators running = 2
51190066875: system.acctest.elem_matrix1_dma: Transfer completed in 8.241 us
51190142500: global: Timer #0 started at tick 51190142500
********************************************************************************
system.acctest.elem_matrix0.compute
   ========= Performance Analysis =============
   Setup Time:                      4.295519seconds
   Simulation Time:                 84.467788seconds
   System Clock:                    1.000000GHz
   Transistor Latency:              1ns
   Runtime:                         10932 cycles
   Runtime:                         10.932000 us
   Stalls:                          1 cycles
   Executed Nodes:                  10930 cycles

********************************************************************************
   ========= Performance Analysis =================
   Setup Time:                      4295518650.000000ns
   Simulation Time:                 84467787682.000000ns
   System Clock:                    1.000000GHz
   Transistor Latency:              0ns
   Runtime:                         10932 cycles
   Runtime:                         0.000001 seconds
   Stalls:                          1 cycles
       Load Only:                   0 cycles
       Store Only:                  1 cycles
       Compute Only:                0 cycles
       Compute & Store:             0 cycles
       Load & Store:                0 cycles
       Load & Compute:              0 cycles
       Load & Compute & Store:      0 cycles
   Executed Nodes:                  10930 cycles
       Load Only:                   0 cycles
       Store Only:                  4 cycles
       Compute Only:                1 cycles
       Compute & Store:             21 cycles
       Load & Store:                0 cycles
       Load & Compute:              6 cycles
       Load & Compute & Store:      10898 cycles

   ========= Runtime FU's ========= (Max | Avg) ===
   Counter FU's:                      32 | 0.046838
   Integer Add/Sub FU's:               0 | 0.000000
   Integer Mul/Div FU's:               0 | 0.000000
   Integer Shifter FU's:               0 | 0.000000
   Integer Bitwise FU's:               1 | 0.000091
   Floating Point Float Add/Sub:       0 | 0.000000
   Floating Point Double Add/Sub:      0 | 0.000000
   Floating Point Float Mul/Div:      34 | 0.044252
   Floating Point Double Mul/Div:      0 | 0.000000
   0 Cycle Compare FU's:             102 | 0.046945
   GEP Instruction FU's:              96 | 0.046835
   Type Conversion FU's:               7 | 0.006782

   ========= Static FU's ==========================
   Counter FU's:                    0
   Integer Add/Sub FU's:            0
   Integer Mul/Div FU's:            0
   Integer Shifter FU's:            0
   Integer Bitwise FU's:            0
   Floating Point Float Add/Sub:    0
   Floating Point Double Add/Sub:   0
   Floating Point Float Mul/Div:    0
   Floating Point Double Mul/Div:   0
   0 Cycle Compare FU's:            0
   GEP Instruction FU's:            0
   Type Conversion FU's:            0
   Other:                           0

   ========= Pipeline Register Usage =============
   Total Number of Registers:       5641
   Max Register Usage Per Cycle:    137
   Avg Register Usage Per Cycle:    12.130992
   Avg Register Size (Bytes):       5.980606

   ========= Memory Configuration =================
   Cache Bus Ports:                 0
   Shared Cache Size:               0kB
   Local Bus Ports:                 0
   Private SPM Size:                256kB
   Private Read Ports:              0
   Private Write Ports:             0
   Private Read Bus Width:          64
   Private Write Bus Width:         64
       Memory Reads:                0
       Memory Writes:               0
   ========= Power Analysis ======================
   FU Leakage Power:                0.045377 mW 
   FU Dynamic Power:                0.142576 mW 
   FU Total Power:                  0.187953 mW 

   Registers Leakage Power:          0.005281 mW 
   Registers Dynamic Power:          0.015326 mW 
       Register Reads (Bits):        132616
       Register Writes (Bits):       133658
   Registers Total Power:            0.020607 mW

   SPM Leakage Power:               0.104100 mW
   SPM Read Dynamic Power:          14.862994 mW
   SPM Write Dynamic Power:         11.558872 mW
   SPM Total Power:                 26.525967 mW

   Cache Leakage Power:             0.000000 mW
   Cache Read Dynamic Power:        0.000000 mW
   Cache Write Dynamic Power:       0.000000 mW
   Cache Total Power:               0.000000 mW

   Accelerator Power:               0.208559 mW
   Accelerator Power (SPM):         26.734526 mW
   Accelerator Power (Cache):       0.208559 mW

   ========= Area Analysis =======================
   FU Area:                         5472.068359 um^2 (0.005472 mm^2)
   Register Area:                   429.271088 um^2 (0.000429 mm^2)
   SPM Area:                        2177.365505 um^2 (0.002177 mm^2)
   Cache Area:                      0.000000 um^2 (0.000000 mm^2)

   Accelerator Area:                5901.339355 um^2 (0.005901 mm^2)
   Accelerator Area (SPM):          8078.704860 um^2 (0.008079 mm^2)
   Accelerator Area (Cache):        5901.339355 um^2 (0.005901 mm^2)

   ========= SPM Resizing  =======================
   SPM Optimized Leakage Power:     0.004248 mW
   SPM Opt Area:                    178.524902 um^2

51191471250: global: Timer #0 stopped at tick 51191471250. Duration: 1328750
51191485625: global: Number of accelerators running = 2
51191594375: global: Timer #0 started at tick 51191594375
********************************************************************************
system.acctest.elem_matrix1.compute
   ========= Performance Analysis =============
   Setup Time:                      6.195462seconds
   Simulation Time:                 94.050440seconds
   System Clock:                    1.000000GHz
   Transistor Latency:              1ns
   Runtime:                         10932 cycles
   Runtime:                         10.932000 us
   Stalls:                          1 cycles
   Executed Nodes:                  10930 cycles

********************************************************************************
   ========= Performance Analysis =================
   Setup Time:                      6195462061.000000ns
   Simulation Time:                 94050440261.000000ns
   System Clock:                    1.000000GHz
   Transistor Latency:              0ns
   Runtime:                         10932 cycles
   Runtime:                         0.000001 seconds
   Stalls:                          1 cycles
       Load Only:                   0 cycles
       Store Only:                  1 cycles
       Compute Only:                0 cycles
       Compute & Store:             0 cycles
       Load & Store:                0 cycles
       Load & Compute:              0 cycles
       Load & Compute & Store:      0 cycles
   Executed Nodes:                  10930 cycles
       Load Only:                   0 cycles
       Store Only:                  4 cycles
       Compute Only:                1 cycles
       Compute & Store:             21 cycles
       Load & Store:                0 cycles
       Load & Compute:              6 cycles
       Load & Compute & Store:      10898 cycles

   ========= Runtime FU's ========= (Max | Avg) ===
   Counter FU's:                      32 | 0.046838
   Integer Add/Sub FU's:               0 | 0.000000
   Integer Mul/Div FU's:               0 | 0.000000
   Integer Shifter FU's:               0 | 0.000000
   Integer Bitwise FU's:               1 | 0.000091
   Floating Point Float Add/Sub:       0 | 0.000000
   Floating Point Double Add/Sub:      0 | 0.000000
   Floating Point Float Mul/Div:      34 | 0.044252
   Floating Point Double Mul/Div:      0 | 0.000000
   0 Cycle Compare FU's:             102 | 0.046945
   GEP Instruction FU's:              96 | 0.046835
   Type Conversion FU's:               7 | 0.006782

   ========= Static FU's ==========================
   Counter FU's:                    0
   Integer Add/Sub FU's:            0
   Integer Mul/Div FU's:            0
   Integer Shifter FU's:            0
   Integer Bitwise FU's:            0
   Floating Point Float Add/Sub:    0
   Floating Point Double Add/Sub:   0
   Floating Point Float Mul/Div:    0
   Floating Point Double Mul/Div:   0
   0 Cycle Compare FU's:            0
   GEP Instruction FU's:            0
   Type Conversion FU's:            0
   Other:                           0

   ========= Pipeline Register Usage =============
   Total Number of Registers:       5641
   Max Register Usage Per Cycle:    137
   Avg Register Usage Per Cycle:    12.130992
   Avg Register Size (Bytes):       5.980606

   ========= Memory Configuration =================
   Cache Bus Ports:                 0
   Shared Cache Size:               0kB
   Local Bus Ports:                 0
   Private SPM Size:                256kB
   Private Read Ports:              0
   Private Write Ports:             0
   Private Read Bus Width:          64
   Private Write Bus Width:         64
       Memory Reads:                0
       Memory Writes:               0
   ========= Power Analysis ======================
   FU Leakage Power:                0.045377 mW 
   FU Dynamic Power:                0.142576 mW 
   FU Total Power:                  0.187953 mW 

   Registers Leakage Power:          0.005281 mW 
   Registers Dynamic Power:          0.015326 mW 
       Register Reads (Bits):        132616
       Register Writes (Bits):       133658
   Registers Total Power:            0.020607 mW

   SPM Leakage Power:               0.104100 mW
   SPM Read Dynamic Power:          13.610876 mW
   SPM Write Dynamic Power:         10.233862 mW
   SPM Total Power:                 23.948839 mW

   Cache Leakage Power:             0.000000 mW
   Cache Read Dynamic Power:        0.000000 mW
   Cache Write Dynamic Power:       0.000000 mW
   Cache Total Power:               0.000000 mW

   Accelerator Power:               0.208559 mW
   Accelerator Power (SPM):         24.157399 mW
   Accelerator Power (Cache):       0.208559 mW

   ========= Area Analysis =======================
   FU Area:                         5472.068359 um^2 (0.005472 mm^2)
   Register Area:                   429.271088 um^2 (0.000429 mm^2)
   SPM Area:                        2177.365505 um^2 (0.002177 mm^2)
   Cache Area:                      0.000000 um^2 (0.000000 mm^2)

   Accelerator Area:                5901.339355 um^2 (0.005901 mm^2)
   Accelerator Area (SPM):          8078.704860 um^2 (0.008079 mm^2)
   Accelerator Area (Cache):        5901.339355 um^2 (0.005901 mm^2)

   ========= SPM Resizing  =======================
   SPM Optimized Leakage Power:     0.004248 mW
   SPM Opt Area:                    178.524902 um^2

51204883750: system.acctest.elem_matrix0_dma: SRC:0x0000000024020020, DST:0x00000000823e2080, LEN:65536
51205228125: global: Timer #0 stopped at tick 51205228125. Duration: 13633750
51205242500: global: Number of accelerators running = 2
51205359375: global: Timer #0 started at tick 51205359375
51211626750: system.acctest.elem_matrix0_dma: Transfer completed in 6.743 us
51219092375: system.acctest.elem_matrix1_dma: SRC:0x0000000024120020, DST:0x0000000082444240, LEN:65536
51219437500: global: Timer #0 stopped at tick 51219437500. Duration: 14078125
51219451875: global: Number of accelerators running = 2
51219569375: global: Timer #0 started at tick 51219569375
51219744375: global: DAG ID = 6
51219758125: global: Node ID = 21
51219776875: global: DAG execution time = 50657
51219790000: global: DAG deadline difference = 33990
51219808125: global: Node deadline difference = 33990
51219820625: global: Predicted memory time / byte = 0 us/byte
51219833125: global: Predicted memory time = 0 us
51219845625: global: Predicted memory time / byte = 0 us/byte
51219858125: global: Predicted memory time = 0 us
51219870625: global: Predicted memory time / byte = 0 us/byte
51219883125: global: Predicted memory time = 0 us
51219895625: global: Predicted memory time / byte = 0 us/byte
51219908125: global: Predicted memory time = 0 us
51220011250: global: Timer #0 stopped at tick 51220011250. Duration: 441875
51220025625: global: Number of accelerators running = 1
51225379375: system.acctest.elem_matrix1_dma: Transfer completed in 6.287 us
51225454375: global: Timer #0 started at tick 51225454375
51225635625: global: DAG ID = 7
51225649375: global: Node ID = 21
51225668125: global: DAG execution time = 50663
51225681250: global: DAG deadline difference = 33996
51225699375: global: Node deadline difference = 33996
51225711875: global: Predicted memory time / byte = 0 us/byte
51225724375: global: Predicted memory time = 0 us
51225736875: global: Predicted memory time / byte = 0 us/byte
51225749375: global: Predicted memory time = 0 us
51225761875: global: Predicted memory time / byte = 0 us/byte
51225774375: global: Predicted memory time = 0 us
51225786875: global: Predicted memory time / byte = 0 us/byte
51225799375: global: Predicted memory time = 0 us
51225902500: global: Timer #0 stopped at tick 51225902500. Duration: 448125
51225916875: global: Number of accelerators running = 0
51225995000: global: Number of forwards = 126
51226130000: global: Number of colocations = 18
51226148750: global: Number of DAG deadlines met = 4
51226166875: global: Number of node deadlines met = 80
51226333125: global: Total predicted compute time = 0 us
Exiting @ tick 51226583125 because m5_exit instruction encountered
