gem5 Simulator System.  http://gem5.org
gem5 is copyrighted software; use the --copyright option for details.

gem5 compiled May 11 2023 13:12:28
gem5 started May 26 2023 23:01:23
gem5 executing on node4x10a.cs.rochester.edu, pid 72419
command line: /u/sgupta45/gem5-SALAM/build/ARM/gem5_bus.opt --debug-flags=HWACC,CommInterface,LLVMInterface,StreamDma,NoncoherentDma,TickTimer,SchedulerStats --outdir=BM_ARM_OUT/comb_2/canny_0_deblur_4_gru_0_harris_4_lstm_0_ELF configs/SALAM/scheduler.py --mem-size=4GB --mem-type=LPDDR5_6400_1x16_BG_BL32 --kernel=/u/sgupta45/gem5-SALAM/benchmarks/scheduler/sw/bin_comb_2/canny_0_deblur_4_gru_0_harris_4_lstm_0_ELF.elf --vans-config-path=/u/sgupta45/VANS/config --disk-image=/u/sgupta45/gem5-SALAM/baremetal/common/fake.iso --machine-type=VExpress_GEM5_V1 --dtb-file=none --bare-metal --cpu-type=ex5_LITTLE --cpu-clock=1.6GHz --accpath=/u/sgupta45/gem5-SALAM/benchmarks --caches --cacheline_size=64 --l1d_size=32kB --l1d_assoc=4 --l1i_size=32kB --l1i_assoc=2

Global frequency set at 1000000000000 ticks per second
Cycle Counts Loaded!
Cycle Counts Loaded!
Cycle Counts Loaded!
Cycle Counts Loaded!
Cycle Counts Loaded!
Cycle Counts Loaded!
Cycle Counts Loaded!
Cycle Counts Loaded!
Cycle Counts Loaded!
Cycle Counts Loaded!
Cycle Counts Loaded!
**** REAL SIMULATION ****
505625625: global: Timer #2 started at tick 505625625
506257500: global: Timer #2 stopped at tick 506257500. Duration: 631875
510665000: global: Timer #2 started at tick 510665000
510846250: global: Timer #2 stopped at tick 510846250. Duration: 181250
514812500: global: Timer #2 started at tick 514812500
514889375: global: Timer #2 stopped at tick 514889375. Duration: 76875
518615625: global: Timer #2 started at tick 518615625
518680625: global: Timer #2 stopped at tick 518680625. Duration: 65000
521273125: global: Timer #2 started at tick 521273125
521337500: global: Timer #2 stopped at tick 521337500. Duration: 64375
522880000: global: Timer #2 started at tick 522880000
522944375: global: Timer #2 stopped at tick 522944375. Duration: 64375
524745000: global: Timer #2 started at tick 524745000
524809375: global: Timer #2 stopped at tick 524809375. Duration: 64375
526696875: global: Timer #2 started at tick 526696875
526761250: global: Timer #2 stopped at tick 526761250. Duration: 64375
532823750: system.acctest.isp0_dma: SRC:0x0000000082058a80, DST:0x0000000027000020, LEN:16900
533393125: global: Number of accelerators running = 1
536062750: system.acctest.isp0_dma: Transfer completed in 3.239 us
536528750: global: Timer #0 started at tick 536528750
536926250: global: Timer #1 started at tick 536926250
537679375: global: Timer #1 stopped at tick 537679375. Duration: 753125
539815625: global: Timer #0 stopped at tick 539815625. Duration: 3286875
539875000: global: Number of accelerators running = 1
********************************************************************************
system.acctest.isp0.compute
   ========= Performance Analysis =============
   Setup Time:                      0.141536seconds
   Simulation Time:                 323.656seconds
   System Clock:                    1GHz
   Transistor Latency:              1ns
   Runtime:                         34882 cycles
   Runtime:                         34.882 us
   Stalls:                          1 cycles
   Executed Nodes:                  34880 cycles

********************************************************************************
   ========= Performance Analysis =================
   Setup Time:                      1.41536e+08ns
   Simulation Time:                 3.23656e+11ns
   System Clock:                    1GHz
   Transistor Latency:              0ns
   Runtime:                         34882 cycles
   Runtime:                         3.4882e-06 seconds
   Stalls:                          1 cycles
       Load Only:                   0 cycles
       Store Only:                  1 cycles
       Compute Only:                0 cycles
       Compute & Store:             0 cycles
       Load & Store:                0 cycles
       Load & Compute:              0 cycles
       Load & Compute & Store:      0 cycles
   Executed Nodes:                  34880 cycles
       Load Only:                   0 cycles
       Store Only:                  1 cycles
       Compute Only:                3453 cycles
       Compute & Store:             19014 cycles
       Load & Store:                0 cycles
       Load & Compute:              2467 cycles
       Load & Compute & Store:      9945 cycles

   ========= Runtime FU's ========= (Max | Avg) ===
   Counter FU's:                      10 | 0.118075
   Integer Add/Sub FU's:              76 | 0.082082
   Integer Mul/Div FU's:              11 | 0.043888
   Integer Shifter FU's:              42 | 0.055974
   Integer Bitwise FU's:               4 | 0.059443
   Floating Point Float Add/Sub:      53 | 0.116839
   Floating Point Double Add/Sub:      0 | 0.000000
   Floating Point Float Mul/Div:      76 | 0.625626
   Floating Point Double Mul/Div:      0 | 0.000000
   0 Cycle Compare FU's:              85 | 0.664984
   GEP Instruction FU's:              33 | 0.117424
   Type Conversion FU's:             110 | 0.379700

   ========= Static FU's ==========================
   Counter FU's:                    0
   Integer Add/Sub FU's:            0
   Integer Mul/Div FU's:            0
   Integer Shifter FU's:            0
   Integer Bitwise FU's:            0
   Floating Point Float Add/Sub:    0
   Floating Point Double Add/Sub:   0
   Floating Point Float Mul/Div:    0
   Floating Point Double Mul/Div:   0
   0 Cycle Compare FU's:            0
   GEP Instruction FU's:            0
   Type Conversion FU's:            0
   Other:                           0

   ========= Pipeline Register Usage =============
   Total Number of Registers:       1620
   Max Register Usage Per Cycle:    151
   Avg Register Usage Per Cycle:    58.744711
   Avg Register Size (Bytes):       5.073357

   ========= Memory Configuration =================
   Cache Bus Ports:                 0
   Shared Cache Size:               0kB
   Local Bus Ports:                 0
   Private SPM Size:                112kB
   Private Read Ports:              0
   Private Write Ports:             0
   Private Read Bus Width:          64
   Private Write Bus Width:         64
       Memory Reads:                0
       Memory Writes:               0
   ========= Power Analysis ======================
   FU Leakage Power:                1.637787 mW 
   FU Dynamic Power:                9.655087 mW 
   FU Total Power:                  11.292874 mW 

   Registers Leakage Power:          0.021654 mW 
   Registers Dynamic Power:          3.085961 mW 
       Register Reads (Bits):        2049133
       Register Writes (Bits):       2049168
   Registers Total Power:            3.107615 mW

   SPM Leakage Power:               0.061081 mW
   SPM Read Dynamic Power:          11.103730 mW
   SPM Write Dynamic Power:         7.385230 mW
   SPM Total Power:                 18.550041 mW

   Cache Leakage Power:             0.000000 mW
   Cache Read Dynamic Power:        0.000000 mW
   Cache Write Dynamic Power:       0.000000 mW
   Cache Total Power:               0.000000 mW

   Accelerator Power:               14.400490 mW
   Accelerator Power (SPM):         32.950531 mW
   Accelerator Power (Cache):       14.400490 mW

   ========= Area Analysis =======================
   FU Area:                         176023.796875 um^2 (0.176024 mm^2)
   Register Area:                   1760.064941 um^2 (0.001760 mm^2)
   SPM Area:                        2165.394891 um^2 (0.002165 mm^2)
   Cache Area:                      0.000000 um^2 (0.000000 mm^2)

   Accelerator Area:                177783.859375 um^2 (0.177784 mm^2)
   Accelerator Area (SPM):          179949.254266 um^2 (0.179949 mm^2)
   Accelerator Area (Cache):        177783.859375 um^2 (0.177784 mm^2)

   ========= SPM Resizing  =======================
   SPM Optimized Leakage Power:     0.005964 mW
   SPM Opt Area:                    422.108128 um^2

574222500: global: Timer #0 started at tick 574222500
574615625: global: Timer #3 started at tick 574615625
575363750: global: Timer #3 stopped at tick 575363750. Duration: 748125
575703750: global: Timer #2 started at tick 575703750
576459375: global: Timer #2 stopped at tick 576459375. Duration: 755625
577165000: global: DAG ID = 0
577184375: global: Node ID = 0
577202500: global: Node deadline difference = -245
577264375: global: Predicted memory time / byte = 0 us/byte
577282500: global: Predicted memory time = 0 us
577300625: global: Predicted memory time / byte = 0 us/byte
577318750: global: Predicted memory time = 0 us
577336875: global: Predicted memory time / byte = 0.000226746 us/byte
577398125: global: Predicted memory time = 3 us
577416250: global: Predicted memory time / byte = 0 us/byte
577434375: global: Predicted memory time = 0 us
578660875: system.acctest.grayscale0_dma: SRC:0x0000000027004224, DST:0x0000000025000020, LEN:49152
583380000: system.acctest.isp0_dma: SRC:0x00000000820babc0, DST:0x0000000027000020, LEN:16900
583614375: global: Timer #0 stopped at tick 583614375. Duration: 9391875
583628750: global: Number of accelerators running = 2
586677000: system.acctest.isp0_dma: Transfer completed in 3.297 us
586766875: global: Timer #0 started at tick 586766875
586896875: global: Timer #1 started at tick 586896875
587089375: global: Timer #1 stopped at tick 587089375. Duration: 192500
588227875: system.acctest.grayscale0_dma: Transfer completed in 9.567 us
588257500: global: Timer #0 stopped at tick 588257500. Duration: 1490625
588271875: global: Number of accelerators running = 2
588443750: global: Timer #0 started at tick 588443750
588581250: global: Timer #1 started at tick 588581250
588765625: global: Timer #1 stopped at tick 588765625. Duration: 184375
590247500: global: Timer #0 stopped at tick 590247500. Duration: 1803750
590261875: global: Number of accelerators running = 2
********************************************************************************
system.acctest.grayscale0.compute
   ========= Performance Analysis =============
   Setup Time:                      0.005869seconds
   Simulation Time:                 239.809678seconds
   System Clock:                    1.000000GHz
   Transistor Latency:              1ns
   Runtime:                         10263 cycles
   Runtime:                         10.263000 us
   Stalls:                          1 cycles
   Executed Nodes:                  10261 cycles

********************************************************************************
   ========= Performance Analysis =================
   Setup Time:                      5869390.000000ns
   Simulation Time:                 239809678238.000000ns
   System Clock:                    1.000000GHz
   Transistor Latency:              0ns
   Runtime:                         10263 cycles
   Runtime:                         0.000001 seconds
   Stalls:                          1 cycles
       Load Only:                   0 cycles
       Store Only:                  1 cycles
       Compute Only:                0 cycles
       Compute & Store:             0 cycles
       Load & Store:                0 cycles
       Load & Compute:              0 cycles
       Load & Compute & Store:      0 cycles
   Executed Nodes:                  10261 cycles
       Load Only:                   0 cycles
       Store Only:                  1 cycles
       Compute Only:                88 cycles
       Compute & Store:             344 cycles
       Load & Store:                0 cycles
       Load & Compute:              1981 cycles
       Load & Compute & Store:      7847 cycles

   ========= Runtime FU's ========= (Max | Avg) ===
   Counter FU's:                      24 | 0.199556
   Integer Add/Sub FU's:               0 | 0.000000
   Integer Mul/Div FU's:               8 | 0.199552
   Integer Shifter FU's:               0 | 0.000000
   Integer Bitwise FU's:               1 | 0.000097
   Floating Point Float Add/Sub:      49 | 0.114264
   Floating Point Double Add/Sub:      0 | 0.000000
   Floating Point Float Mul/Div:      42 | 0.114129
   Floating Point Double Mul/Div:      0 | 0.000000
   0 Cycle Compare FU's:               9 | 0.066626
   GEP Instruction FU's:              36 | 0.177452
   Type Conversion FU's:              76 | 0.401969

   ========= Static FU's ==========================
   Counter FU's:                    0
   Integer Add/Sub FU's:            0
   Integer Mul/Div FU's:            0
   Integer Shifter FU's:            0
   Integer Bitwise FU's:            0
   Floating Point Float Add/Sub:    0
   Floating Point Double Add/Sub:   0
   Floating Point Float Mul/Div:    0
   Floating Point Double Mul/Div:   0
   0 Cycle Compare FU's:            0
   GEP Instruction FU's:            0
   Type Conversion FU's:            0
   Other:                           0

   ========= Pipeline Register Usage =============
   Total Number of Registers:       235
   Max Register Usage Per Cycle:    90
   Avg Register Usage Per Cycle:    33.924291
   Avg Register Size (Bytes):       5.841147

   ========= Memory Configuration =================
   Cache Bus Ports:                 0
   Shared Cache Size:               0kB
   Local Bus Ports:                 0
   Private SPM Size:                176kB
   Private Read Ports:              0
   Private Write Ports:             0
   Private Read Bus Width:          64
   Private Write Bus Width:         64
       Memory Reads:                0
       Memory Writes:               0
   ========= Power Analysis ======================
   FU Leakage Power:                1.178269 mW 
   FU Dynamic Power:                0.617392 mW 
   FU Total Power:                  1.795662 mW 

   Registers Leakage Power:          0.014185 mW 
   Registers Dynamic Power:          0.101057 mW 
       Register Reads (Bits):        348165
       Register Writes (Bits):       348168
   Registers Total Power:            0.115242 mW

   SPM Leakage Power:               0.089881 mW
   SPM Read Dynamic Power:          6.997296 mW
   SPM Write Dynamic Power:         2.062375 mW
   SPM Total Power:                 9.149552 mW

   Cache Leakage Power:             0.000000 mW
   Cache Read Dynamic Power:        0.000000 mW
   Cache Write Dynamic Power:       0.000000 mW
   Cache Total Power:               0.000000 mW

   Accelerator Power:               1.910904 mW
   Accelerator Power (SPM):         11.060456 mW
   Accelerator Power (Cache):       1.910904 mW

   ========= Area Analysis =======================
   FU Area:                         143348.187500 um^2 (0.143348 mm^2)
   Register Area:                   1152.968140 um^2 (0.001153 mm^2)
   SPM Area:                        3573.642862 um^2 (0.003574 mm^2)
   Cache Area:                      0.000000 um^2 (0.000000 mm^2)

   Accelerator Area:                144501.156250 um^2 (0.144501 mm^2)
   Accelerator Area (SPM):          148074.799112 um^2 (0.148075 mm^2)
   Accelerator Area (Cache):        144501.156250 um^2 (0.144501 mm^2)

   ========= SPM Resizing  =======================
   SPM Optimized Leakage Power:     0.003633 mW
   SPM Opt Area:                    364.024374 um^2

600190000: global: Timer #0 started at tick 600190000
600363125: global: Timer #3 started at tick 600363125
600559375: global: Timer #3 stopped at tick 600559375. Duration: 196250
600898125: global: Timer #2 started at tick 600898125
601022500: global: Timer #2 stopped at tick 601022500. Duration: 124375
614466625: system.acctest.grayscale0_dma: SRC:0x000000002500c020, DST:0x0000000082068e40, LEN:65536
616473000: system.acctest.convolution0_dma: SRC:0x000000002500c020, DST:0x0000000022000020, LEN:65536
616875625: global: Timer #0 stopped at tick 616875625. Duration: 16685625
616890000: global: Number of accelerators running = 3
********************************************************************************
system.acctest.isp0.compute
   ========= Performance Analysis =============
   Setup Time:                      0.339914seconds
   Simulation Time:                 543.472778seconds
   System Clock:                    1.000000GHz
   Transistor Latency:              1ns
   Runtime:                         34883 cycles
   Runtime:                         34.883000 us
   Stalls:                          1 cycles
   Executed Nodes:                  34881 cycles

********************************************************************************
   ========= Performance Analysis =================
   Setup Time:                      339914416.000000ns
   Simulation Time:                 543472777700.000061ns
   System Clock:                    1.000000GHz
   Transistor Latency:              0ns
   Runtime:                         34883 cycles
   Runtime:                         0.000003 seconds
   Stalls:                          1 cycles
       Load Only:                   0 cycles
       Store Only:                  1 cycles
       Compute Only:                0 cycles
       Compute & Store:             0 cycles
       Load & Store:                0 cycles
       Load & Compute:              0 cycles
       Load & Compute & Store:      0 cycles
   Executed Nodes:                  34881 cycles
       Load Only:                   0 cycles
       Store Only:                  1 cycles
       Compute Only:                3464 cycles
       Compute & Store:             18999 cycles
       Load & Store:                0 cycles
       Load & Compute:              2488 cycles
       Load & Compute & Store:      9929 cycles

   ========= Runtime FU's ========= (Max | Avg) ===
   Counter FU's:                      10 | 0.118072
   Integer Add/Sub FU's:              68 | 0.091698
   Integer Mul/Div FU's:              11 | 0.043887
   Integer Shifter FU's:              45 | 0.052264
   Integer Bitwise FU's:               4 | 0.059442
   Floating Point Float Add/Sub:      50 | 0.123644
   Floating Point Double Add/Sub:      0 | 0.000000
   Floating Point Float Mul/Div:      76 | 0.625294
   Floating Point Double Mul/Div:      0 | 0.000000
   0 Cycle Compare FU's:              85 | 0.665326
   GEP Instruction FU's:              33 | 0.117421
   Type Conversion FU's:             111 | 0.376412

   ========= Static FU's ==========================
   Counter FU's:                    0
   Integer Add/Sub FU's:            0
   Integer Mul/Div FU's:            0
   Integer Shifter FU's:            0
   Integer Bitwise FU's:            0
   Floating Point Float Add/Sub:    0
   Floating Point Double Add/Sub:   0
   Floating Point Float Mul/Div:    0
   Floating Point Double Mul/Div:   0
   0 Cycle Compare FU's:            0
   GEP Instruction FU's:            0
   Type Conversion FU's:            0
   Other:                           0

   ========= Pipeline Register Usage =============
   Total Number of Registers:       1620
   Max Register Usage Per Cycle:    150
   Avg Register Usage Per Cycle:    58.743027
   Avg Register Size (Bytes):       5.073357

   ========= Memory Configuration =================
   Cache Bus Ports:                 0
   Shared Cache Size:               0kB
   Local Bus Ports:                 0
   Private SPM Size:                112kB
   Private Read Ports:              0
   Private Write Ports:             0
   Private Read Bus Width:          64
   Private Write Bus Width:         64
       Memory Reads:                0
       Memory Writes:               0
   ========= Power Analysis ======================
   FU Leakage Power:                1.578062 mW 
   FU Dynamic Power:                9.648921 mW 
   FU Total Power:                  11.226983 mW 

   Registers Leakage Power:          0.021654 mW 
   Registers Dynamic Power:          3.086050 mW 
       Register Reads (Bits):        2049133
       Register Writes (Bits):       2049168
   Registers Total Power:            3.107704 mW

   SPM Leakage Power:               0.061081 mW
   SPM Read Dynamic Power:          15.102444 mW
   SPM Write Dynamic Power:         10.618341 mW
   SPM Total Power:                 25.781867 mW

   Cache Leakage Power:             0.000000 mW
   Cache Read Dynamic Power:        0.000000 mW
   Cache Write Dynamic Power:       0.000000 mW
   Cache Total Power:               0.000000 mW

   Accelerator Power:               14.334687 mW
   Accelerator Power (SPM):         40.116554 mW
   Accelerator Power (Cache):       14.334687 mW

   ========= Area Analysis =======================
   FU Area:                         170581.953125 um^2 (0.170582 mm^2)
   Register Area:                   1760.064941 um^2 (0.001760 mm^2)
   SPM Area:                        2165.394891 um^2 (0.002165 mm^2)
   Cache Area:                      0.000000 um^2 (0.000000 mm^2)

   Accelerator Area:                172342.015625 um^2 (0.172342 mm^2)
   Accelerator Area (SPM):          174507.410516 um^2 (0.174507 mm^2)
   Accelerator Area (Cache):        172342.015625 um^2 (0.172342 mm^2)

   ========= SPM Resizing  =======================
   SPM Optimized Leakage Power:     0.005889 mW
   SPM Opt Area:                    420.258807 um^2

622971875: global: Timer #0 started at tick 622971875
623291875: global: Timer #3 started at tick 623291875
623513750: global: Timer #3 stopped at tick 623513750. Duration: 221875
623563750: global: Timer #2 started at tick 623563750
623680625: global: Timer #2 stopped at tick 623680625. Duration: 116875
625152625: system.acctest.grayscale0_dma: Transfer completed in 10.686 us
629733000: system.acctest.convolution0_dma: Transfer completed in 13.26 us
633835875: system.acctest.isp0_dma: SRC:0x0000000027010224, DST:0x00000000820bee00, LEN:49152
634236875: global: Timer #0 stopped at tick 634236875. Duration: 11265000
634251250: global: Number of accelerators running = 3
634366250: global: Timer #0 started at tick 634366250
634645625: global: Timer #1 started at tick 634645625
635170625: global: Timer #1 stopped at tick 635170625. Duration: 525000
635590625: global: DAG ID = 0
635653125: global: Node ID = 1
635724375: global: Node deadline difference = -224
635744375: global: Predicted memory time / byte = 0.000226746 us/byte
635762500: global: Predicted memory time = 26.005 us
635780625: global: Predicted memory time / byte = 0.000226746 us/byte
635798750: global: Predicted memory time = 26.005 us
635816875: global: Predicted memory time / byte = 0.00019814 us/byte
635835000: global: Predicted memory time = 9 us
635853125: global: Predicted memory time / byte = 0.000304382 us/byte
635871250: global: Predicted memory time = 19 us
639298875: system.acctest.isp0_dma: Transfer completed in 5.463 us
646496625: system.acctest.grayscale0_dma: SRC:0x00000000820bee00, DST:0x0000000025000020, LEN:49152
646714375: global: Timer #0 stopped at tick 646714375. Duration: 12348125
646728750: global: Number of accelerators running = 3
646898125: global: Timer #0 started at tick 646898125
647032500: global: Timer #1 started at tick 647032500
647205625: global: Timer #1 stopped at tick 647205625. Duration: 173125
648912000: system.acctest.convolution0_dma: SRC:0x0000000082018780, DST:0x0000000022030020, LEN:100
649012000: system.acctest.convolution0_dma: Transfer completed in 0.1 us
649162500: global: Timer #0 stopped at tick 649162500. Duration: 2264375
649176875: global: Number of accelerators running = 3
649356875: global: Timer #0 started at tick 649356875
649404375: global: Timer #1 started at tick 649404375
649610625: global: Timer #1 stopped at tick 649610625. Duration: 206250
649976250: global: DAG ID = 1
649990000: global: Node ID = 0
650009375: global: Node deadline difference = -173
650021875: global: Predicted memory time / byte = 0 us/byte
650034375: global: Predicted memory time = 0 us
650046875: global: Predicted memory time / byte = 0.000226746 us/byte
650059375: global: Predicted memory time = 14.977 us
650071875: global: Predicted memory time / byte = 0.00020071 us/byte
650084375: global: Predicted memory time = 3 us
650096875: global: Predicted memory time / byte = 0.000313741 us/byte
650109375: global: Predicted memory time = 15 us
654279500: system.acctest.isp0_dma: SRC:0x000000008211cd00, DST:0x0000000027000020, LEN:16900
654458750: global: Timer #0 stopped at tick 654458750. Duration: 5101875
654473125: global: Number of accelerators running = 3
654637500: global: Timer #0 started at tick 654637500
655618625: system.acctest.grayscale0_dma: Transfer completed in 9.122 us
656166875: global: Timer #0 stopped at tick 656166875. Duration: 1529375
656181250: global: Number of accelerators running = 3
656296875: global: Timer #0 started at tick 656296875
656339375: global: Timer #1 started at tick 656339375
656540625: global: Timer #1 stopped at tick 656540625. Duration: 201250
657608750: global: Timer #0 stopped at tick 657608750. Duration: 1311875
657623125: global: Number of accelerators running = 3
657657500: system.acctest.isp0_dma: Transfer completed in 3.378 us
657810000: global: Timer #0 started at tick 657810000
657951250: global: Timer #1 started at tick 657951250
658135625: global: Timer #1 stopped at tick 658135625. Duration: 184375
659253125: global: Timer #0 stopped at tick 659253125. Duration: 1443125
659267500: global: Number of accelerators running = 3
********************************************************************************
system.acctest.grayscale0.compute
   ========= Performance Analysis =============
   Setup Time:                      0.005156seconds
   Simulation Time:                 218.442327seconds
   System Clock:                    1.000000GHz
   Transistor Latency:              1ns
   Runtime:                         10263 cycles
   Runtime:                         10.263000 us
   Stalls:                          1 cycles
   Executed Nodes:                  10261 cycles

********************************************************************************
   ========= Performance Analysis =================
   Setup Time:                      5155989.000000ns
   Simulation Time:                 218442326729.000000ns
   System Clock:                    1.000000GHz
   Transistor Latency:              0ns
   Runtime:                         10263 cycles
   Runtime:                         0.000001 seconds
   Stalls:                          1 cycles
       Load Only:                   0 cycles
       Store Only:                  1 cycles
       Compute Only:                0 cycles
       Compute & Store:             0 cycles
       Load & Store:                0 cycles
       Load & Compute:              0 cycles
       Load & Compute & Store:      0 cycles
   Executed Nodes:                  10261 cycles
       Load Only:                   0 cycles
       Store Only:                  1 cycles
       Compute Only:                88 cycles
       Compute & Store:             344 cycles
       Load & Store:                0 cycles
       Load & Compute:              1981 cycles
       Load & Compute & Store:      7847 cycles

   ========= Runtime FU's ========= (Max | Avg) ===
   Counter FU's:                      24 | 0.199556
   Integer Add/Sub FU's:               0 | 0.000000
   Integer Mul/Div FU's:               8 | 0.199552
   Integer Shifter FU's:               0 | 0.000000
   Integer Bitwise FU's:               1 | 0.000097
   Floating Point Float Add/Sub:      49 | 0.114264
   Floating Point Double Add/Sub:      0 | 0.000000
   Floating Point Float Mul/Div:      42 | 0.114129
   Floating Point Double Mul/Div:      0 | 0.000000
   0 Cycle Compare FU's:               9 | 0.066626
   GEP Instruction FU's:              36 | 0.177452
   Type Conversion FU's:              76 | 0.401969

   ========= Static FU's ==========================
   Counter FU's:                    0
   Integer Add/Sub FU's:            0
   Integer Mul/Div FU's:            0
   Integer Shifter FU's:            0
   Integer Bitwise FU's:            0
   Floating Point Float Add/Sub:    0
   Floating Point Double Add/Sub:   0
   Floating Point Float Mul/Div:    0
   Floating Point Double Mul/Div:   0
   0 Cycle Compare FU's:            0
   GEP Instruction FU's:            0
   Type Conversion FU's:            0
   Other:                           0

   ========= Pipeline Register Usage =============
   Total Number of Registers:       235
   Max Register Usage Per Cycle:    90
   Avg Register Usage Per Cycle:    33.924291
   Avg Register Size (Bytes):       5.841147

   ========= Memory Configuration =================
   Cache Bus Ports:                 0
   Shared Cache Size:               0kB
   Local Bus Ports:                 0
   Private SPM Size:                176kB
   Private Read Ports:              0
   Private Write Ports:             0
   Private Read Bus Width:          64
   Private Write Bus Width:         64
       Memory Reads:                0
       Memory Writes:               0
   ========= Power Analysis ======================
   FU Leakage Power:                1.178269 mW 
   FU Dynamic Power:                0.617392 mW 
   FU Total Power:                  1.795662 mW 

   Registers Leakage Power:          0.014185 mW 
   Registers Dynamic Power:          0.101057 mW 
       Register Reads (Bits):        348165
       Register Writes (Bits):       348168
   Registers Total Power:            0.115242 mW

   SPM Leakage Power:               0.089881 mW
   SPM Read Dynamic Power:          10.232207 mW
   SPM Write Dynamic Power:         5.980668 mW
   SPM Total Power:                 16.302756 mW

   Cache Leakage Power:             0.000000 mW
   Cache Read Dynamic Power:        0.000000 mW
   Cache Write Dynamic Power:       0.000000 mW
   Cache Total Power:               0.000000 mW

   Accelerator Power:               1.910904 mW
   Accelerator Power (SPM):         18.213660 mW
   Accelerator Power (Cache):       1.910904 mW

   ========= Area Analysis =======================
   FU Area:                         143348.187500 um^2 (0.143348 mm^2)
   Register Area:                   1152.968140 um^2 (0.001153 mm^2)
   SPM Area:                        3573.642862 um^2 (0.003574 mm^2)
   Cache Area:                      0.000000 um^2 (0.000000 mm^2)

   Accelerator Area:                144501.156250 um^2 (0.144501 mm^2)
   Accelerator Area (SPM):          148074.799112 um^2 (0.148075 mm^2)
   Accelerator Area (Cache):        144501.156250 um^2 (0.144501 mm^2)

   ========= SPM Resizing  =======================
   SPM Optimized Leakage Power:     0.003633 mW
   SPM Opt Area:                    364.024374 um^2

667728125: global: Timer #0 started at tick 667728125
668039375: global: Timer #3 started at tick 668039375
668241875: global: Timer #3 stopped at tick 668241875. Duration: 202500
668383750: global: Timer #2 started at tick 668383750
668470625: global: Timer #2 stopped at tick 668470625. Duration: 86875
681780875: system.acctest.grayscale0_dma: SRC:0x000000002500c020, DST:0x00000000820caf80, LEN:65536
683175000: system.acctest.convolution1_dma: SRC:0x000000002500c020, DST:0x0000000022100020, LEN:65536
683470625: global: Timer #0 stopped at tick 683470625. Duration: 15742500
683485000: global: Number of accelerators running = 4
693102875: system.acctest.grayscale0_dma: Transfer completed in 11.322 us
693222500: global: Timer #0 started at tick 693222500
693266875: global: Timer #1 started at tick 693266875
693504375: global: Timer #1 stopped at tick 693504375. Duration: 237500
693834375: global: DAG ID = 1
693848125: global: Node ID = 1
693867500: global: Node deadline difference = -166
693880000: global: Predicted memory time / byte = 0.00019814 us/byte
693892500: global: Predicted memory time = 22.7243 us
693905000: global: Predicted memory time / byte = 0.000304382 us/byte
693917500: global: Predicted memory time = 34.909 us
********************************************************************************
system.acctest.isp0.compute
   ========= Performance Analysis =============
   Setup Time:                      0.201524seconds
   Simulation Time:                 529.550830seconds
   System Clock:                    1.000000GHz
   Transistor Latency:              1ns
   Runtime:                         34882 cycles
   Runtime:                         34.882000 us
   Stalls:                          1 cycles
   Executed Nodes:                  34880 cycles

********************************************************************************
   ========= Performance Analysis =================
   Setup Time:                      201523941.000000ns
   Simulation Time:                 529550829990.000000ns
   System Clock:                    1.000000GHz
   Transistor Latency:              0ns
   Runtime:                         34882 cycles
   Runtime:                         0.000003 seconds
   Stalls:                          1 cycles
       Load Only:                   0 cycles
       Store Only:                  1 cycles
       Compute Only:                0 cycles
       Compute & Store:             0 cycles
       Load & Store:                0 cycles
       Load & Compute:              0 cycles
       Load & Compute & Store:      0 cycles
   Executed Nodes:                  34880 cycles
       Load Only:                   0 cycles
       Store Only:                  1 cycles
       Compute Only:                3453 cycles
       Compute & Store:             19014 cycles
       Load & Store:                0 cycles
       Load & Compute:              2467 cycles
       Load & Compute & Store:      9945 cycles

   ========= Runtime FU's ========= (Max | Avg) ===
   Counter FU's:                      10 | 0.118075
   Integer Add/Sub FU's:              76 | 0.082082
   Integer Mul/Div FU's:              11 | 0.043888
   Integer Shifter FU's:              42 | 0.055974
   Integer Bitwise FU's:               4 | 0.059443
   Floating Point Float Add/Sub:      53 | 0.116839
   Floating Point Double Add/Sub:      0 | 0.000000
   Floating Point Float Mul/Div:      76 | 0.625626
   Floating Point Double Mul/Div:      0 | 0.000000
   0 Cycle Compare FU's:              85 | 0.664984
   GEP Instruction FU's:              33 | 0.117424
   Type Conversion FU's:             110 | 0.379700

   ========= Static FU's ==========================
   Counter FU's:                    0
   Integer Add/Sub FU's:            0
   Integer Mul/Div FU's:            0
   Integer Shifter FU's:            0
   Integer Bitwise FU's:            0
   Floating Point Float Add/Sub:    0
   Floating Point Double Add/Sub:   0
   Floating Point Float Mul/Div:    0
   Floating Point Double Mul/Div:   0
   0 Cycle Compare FU's:            0
   GEP Instruction FU's:            0
   Type Conversion FU's:            0
   Other:                           0

   ========= Pipeline Register Usage =============
   Total Number of Registers:       1620
   Max Register Usage Per Cycle:    151
   Avg Register Usage Per Cycle:    58.744711
   Avg Register Size (Bytes):       5.073357

   ========= Memory Configuration =================
   Cache Bus Ports:                 0
   Shared Cache Size:               0kB
   Local Bus Ports:                 0
   Private SPM Size:                112kB
   Private Read Ports:              0
   Private Write Ports:             0
   Private Read Bus Width:          64
   Private Write Bus Width:         64
       Memory Reads:                0
       Memory Writes:               0
   ========= Power Analysis ======================
   FU Leakage Power:                1.637787 mW 
   FU Dynamic Power:                9.655087 mW 
   FU Total Power:                  11.292874 mW 

   Registers Leakage Power:          0.021654 mW 
   Registers Dynamic Power:          3.085961 mW 
       Register Reads (Bits):        2049133
       Register Writes (Bits):       2049168
   Registers Total Power:            3.107615 mW

   SPM Leakage Power:               0.061081 mW
   SPM Read Dynamic Power:          18.884297 mW
   SPM Write Dynamic Power:         13.423581 mW
   SPM Total Power:                 32.368959 mW

   Cache Leakage Power:             0.000000 mW
   Cache Read Dynamic Power:        0.000000 mW
   Cache Write Dynamic Power:       0.000000 mW
   Cache Total Power:               0.000000 mW

   Accelerator Power:               14.400490 mW
   Accelerator Power (SPM):         46.769449 mW
   Accelerator Power (Cache):       14.400490 mW

   ========= Area Analysis =======================
   FU Area:                         176023.796875 um^2 (0.176024 mm^2)
   Register Area:                   1760.064941 um^2 (0.001760 mm^2)
   SPM Area:                        2165.394891 um^2 (0.002165 mm^2)
   Cache Area:                      0.000000 um^2 (0.000000 mm^2)

   Accelerator Area:                177783.859375 um^2 (0.177784 mm^2)
   Accelerator Area (SPM):          179949.254266 um^2 (0.179949 mm^2)
   Accelerator Area (Cache):        177783.859375 um^2 (0.177784 mm^2)

   ========= SPM Resizing  =======================
   SPM Optimized Leakage Power:     0.005964 mW
   SPM Opt Area:                    422.108128 um^2

693930000: global: Predicted memory time / byte = 0.000197693 us/byte
693942500: global: Predicted memory time = 9 us
693955000: global: Predicted memory time / byte = 0.000173172 us/byte
693967500: global: Predicted memory time = 11 us
694088125: global: Timer #0 stopped at tick 694088125. Duration: 865625
694102500: global: Number of accelerators running = 3
694248125: global: Timer #0 started at tick 694248125
694562500: global: Timer #3 started at tick 694562500
694770625: global: Timer #3 stopped at tick 694770625. Duration: 208125
694828125: global: Timer #2 started at tick 694828125
694915000: global: Timer #2 stopped at tick 694915000. Duration: 86875
695158750: global: DAG ID = 2
695172500: global: Node ID = 0
695185625: global: Node deadline difference = -127
695198125: global: Predicted memory time / byte = 0 us/byte
695210625: global: Predicted memory time = 0 us
695223125: global: Predicted memory time / byte = 0.000313741 us/byte
695235625: global: Predicted memory time = 20.7232 us
695248125: global: Predicted memory time / byte = 0.000209231 us/byte
695260625: global: Predicted memory time = 3 us
695273125: global: Predicted memory time / byte = 0 us/byte
695285625: global: Predicted memory time = 0 us
696099000: system.acctest.grayscale0_dma: SRC:0x0000000027004224, DST:0x0000000025000020, LEN:49152
697499000: system.acctest.convolution1_dma: Transfer completed in 14.324 us
700355000: system.acctest.isp0_dma: SRC:0x000000008217ee40, DST:0x0000000027000020, LEN:16900
700535000: global: Timer #0 stopped at tick 700535000. Duration: 6286875
700549375: global: Number of accelerators running = 4
700674375: global: Timer #0 started at tick 700674375
700808750: global: Timer #1 started at tick 700808750
700956250: global: Timer #1 stopped at tick 700956250. Duration: 147500
702223000: system.acctest.convolution1_dma: SRC:0x0000000082018780, DST:0x0000000022130020, LEN:100
702342000: system.acctest.convolution1_dma: Transfer completed in 0.119 us
702437500: global: Timer #0 stopped at tick 702437500. Duration: 1763125
702451875: global: Number of accelerators running = 4
702632500: global: Timer #0 started at tick 702632500
703695000: system.acctest.isp0_dma: Transfer completed in 3.34 us
704104375: global: Timer #0 stopped at tick 704104375. Duration: 1471875
704118750: global: Number of accelerators running = 4
704236250: global: Timer #0 started at tick 704236250
704278750: global: Timer #1 started at tick 704278750
704473750: global: Timer #1 stopped at tick 704473750. Duration: 195000
705610000: global: Timer #0 stopped at tick 705610000. Duration: 1373750
705624375: global: Number of accelerators running = 4
706324000: system.acctest.grayscale0_dma: Transfer completed in 10.225 us
706398125: global: Timer #0 started at tick 706398125
706480000: global: Timer #1 started at tick 706480000
706664375: global: Timer #1 stopped at tick 706664375. Duration: 184375
707611875: global: Timer #0 stopped at tick 707611875. Duration: 1213750
707626250: global: Number of accelerators running = 4
********************************************************************************
system.acctest.grayscale0.compute
   ========= Performance Analysis =============
   Setup Time:                      0.006401seconds
   Simulation Time:                 244.640145seconds
   System Clock:                    1.000000GHz
   Transistor Latency:              1ns
   Runtime:                         10263 cycles
   Runtime:                         10.263000 us
   Stalls:                          1 cycles
   Executed Nodes:                  10261 cycles

********************************************************************************
   ========= Performance Analysis =================
   Setup Time:                      6400932.000000ns
   Simulation Time:                 244640144673.000000ns
   System Clock:                    1.000000GHz
   Transistor Latency:              0ns
   Runtime:                         10263 cycles
   Runtime:                         0.000001 seconds
   Stalls:                          1 cycles
       Load Only:                   0 cycles
       Store Only:                  1 cycles
       Compute Only:                0 cycles
       Compute & Store:             0 cycles
       Load & Store:                0 cycles
       Load & Compute:              0 cycles
       Load & Compute & Store:      0 cycles
   Executed Nodes:                  10261 cycles
       Load Only:                   0 cycles
       Store Only:                  1 cycles
       Compute Only:                88 cycles
       Compute & Store:             344 cycles
       Load & Store:                0 cycles
       Load & Compute:              1981 cycles
       Load & Compute & Store:      7847 cycles

   ========= Runtime FU's ========= (Max | Avg) ===
   Counter FU's:                      24 | 0.199556
   Integer Add/Sub FU's:               0 | 0.000000
   Integer Mul/Div FU's:               8 | 0.199552
   Integer Shifter FU's:               0 | 0.000000
   Integer Bitwise FU's:               1 | 0.000097
   Floating Point Float Add/Sub:      49 | 0.114264
   Floating Point Double Add/Sub:      0 | 0.000000
   Floating Point Float Mul/Div:      42 | 0.114129
   Floating Point Double Mul/Div:      0 | 0.000000
   0 Cycle Compare FU's:               9 | 0.066626
   GEP Instruction FU's:              36 | 0.177452
   Type Conversion FU's:              76 | 0.401969

   ========= Static FU's ==========================
   Counter FU's:                    0
   Integer Add/Sub FU's:            0
   Integer Mul/Div FU's:            0
   Integer Shifter FU's:            0
   Integer Bitwise FU's:            0
   Floating Point Float Add/Sub:    0
   Floating Point Double Add/Sub:   0
   Floating Point Float Mul/Div:    0
   Floating Point Double Mul/Div:   0
   0 Cycle Compare FU's:            0
   GEP Instruction FU's:            0
   Type Conversion FU's:            0
   Other:                           0

   ========= Pipeline Register Usage =============
   Total Number of Registers:       235
   Max Register Usage Per Cycle:    90
   Avg Register Usage Per Cycle:    33.924291
   Avg Register Size (Bytes):       5.841147

   ========= Memory Configuration =================
   Cache Bus Ports:                 0
   Shared Cache Size:               0kB
   Local Bus Ports:                 0
   Private SPM Size:                176kB
   Private Read Ports:              0
   Private Write Ports:             0
   Private Read Bus Width:          64
   Private Write Bus Width:         64
       Memory Reads:                0
       Memory Writes:               0
   ========= Power Analysis ======================
   FU Leakage Power:                1.178269 mW 
   FU Dynamic Power:                0.617392 mW 
   FU Total Power:                  1.795662 mW 

   Registers Leakage Power:          0.014185 mW 
   Registers Dynamic Power:          0.101057 mW 
       Register Reads (Bits):        348165
       Register Writes (Bits):       348168
   Registers Total Power:            0.115242 mW

   SPM Leakage Power:               0.089881 mW
   SPM Read Dynamic Power:          12.841663 mW
   SPM Write Dynamic Power:         7.385230 mW
   SPM Total Power:                 20.316774 mW

   Cache Leakage Power:             0.000000 mW
   Cache Read Dynamic Power:        0.000000 mW
   Cache Write Dynamic Power:       0.000000 mW
   Cache Total Power:               0.000000 mW

   Accelerator Power:               1.910904 mW
   Accelerator Power (SPM):         22.227678 mW
   Accelerator Power (Cache):       1.910904 mW

   ========= Area Analysis =======================
   FU Area:                         143348.187500 um^2 (0.143348 mm^2)
   Register Area:                   1152.968140 um^2 (0.001153 mm^2)
   SPM Area:                        3573.642862 um^2 (0.003574 mm^2)
   Cache Area:                      0.000000 um^2 (0.000000 mm^2)

   Accelerator Area:                144501.156250 um^2 (0.144501 mm^2)
   Accelerator Area (SPM):          148074.799112 um^2 (0.148075 mm^2)
   Accelerator Area (Cache):        144501.156250 um^2 (0.144501 mm^2)

   ========= SPM Resizing  =======================
   SPM Optimized Leakage Power:     0.003633 mW
   SPM Opt Area:                    364.024374 um^2

717744375: global: Timer #0 started at tick 717744375
717918125: global: Timer #3 started at tick 717918125
718128750: global: Timer #3 stopped at tick 718128750. Duration: 210625
718716250: global: Timer #2 started at tick 718716250
718798125: global: Timer #2 stopped at tick 718798125. Duration: 81875
732082375: system.acctest.grayscale0_dma: SRC:0x000000002500c020, DST:0x000000008212d0c0, LEN:65536
732459375: global: Timer #0 stopped at tick 732459375. Duration: 14715000
732473750: global: Number of accelerators running = 4
738432375: system.acctest.grayscale0_dma: Transfer completed in 6.35 us
738506250: global: Timer #0 started at tick 738506250
738550625: global: Timer #1 started at tick 738550625
738702500: global: Timer #1 stopped at tick 738702500. Duration: 151875
739012500: global: DAG ID = 2
739026250: global: Node ID = 1
739045625: global: Node deadline difference = -121
739058125: global: Predicted memory time / byte = 0.000173172 us/byte
739070625: global: Predicted memory time = 19.8608 us
739083125: global: Predicted memory time / byte = 0.000173172 us/byte
739095625: global: Predicted memory time = 19.8608 us
739108125: global: Predicted memory time / byte = 0.000208496 us/byte
739120625: global: Predicted memory time = 10 us
739133125: global: Predicted memory time / byte = 9.65881e-05 us/byte
739145625: global: Predicted memory time = 6 us
739261875: global: Timer #0 stopped at tick 739261875. Duration: 755625
739276250: global: Number of accelerators running = 3
********************************************************************************
system.acctest.isp0.compute
   ========= Performance Analysis =============
   Setup Time:                      0.191949seconds
   Simulation Time:                 564.482648seconds
   System Clock:                    1.000000GHz
   Transistor Latency:              1ns
   Runtime:                         34884 cycles
   Runtime:                         34.884000 us
   Stalls:                          1 cycles
   Executed Nodes:                  34882 cycles

********************************************************************************
   ========= Performance Analysis =================
   Setup Time:                      191949301.000000ns
   Simulation Time:                 564482648232.000000ns
   System Clock:                    1.000000GHz
   Transistor Latency:              0ns
   Runtime:                         34884 cycles
   Runtime:                         0.000003 seconds
   Stalls:                          1 cycles
       Load Only:                   0 cycles
       Store Only:                  1 cycles
       Compute Only:                0 cycles
       Compute & Store:             0 cycles
       Load & Store:                0 cycles
       Load & Compute:              0 cycles
       Load & Compute & Store:      0 cycles
   Executed Nodes:                  34882 cycles
       Load Only:                   0 cycles
       Store Only:                  1 cycles
       Compute Only:                3458 cycles
       Compute & Store:             19000 cycles
       Load & Store:                0 cycles
       Load & Compute:              2495 cycles
       Load & Compute & Store:      9928 cycles

   ========= Runtime FU's ========= (Max | Avg) ===
   Counter FU's:                      10 | 0.118068
   Integer Add/Sub FU's:              68 | 0.091695
   Integer Mul/Div FU's:              11 | 0.043886
   Integer Shifter FU's:              45 | 0.052262
   Integer Bitwise FU's:               4 | 0.059440
   Floating Point Float Add/Sub:      50 | 0.123921
   Floating Point Double Add/Sub:      0 | 0.000000
   Floating Point Float Mul/Div:      76 | 0.624919
   Floating Point Double Mul/Div:      0 | 0.000000
   0 Cycle Compare FU's:              85 | 0.664776
   GEP Instruction FU's:              33 | 0.117418
   Type Conversion FU's:             111 | 0.376341

   ========= Static FU's ==========================
   Counter FU's:                    0
   Integer Add/Sub FU's:            0
   Integer Mul/Div FU's:            0
   Integer Shifter FU's:            0
   Integer Bitwise FU's:            0
   Floating Point Float Add/Sub:    0
   Floating Point Double Add/Sub:   0
   Floating Point Float Mul/Div:    0
   Floating Point Double Mul/Div:   0
   0 Cycle Compare FU's:            0
   GEP Instruction FU's:            0
   Type Conversion FU's:            0
   Other:                           0

   ========= Pipeline Register Usage =============
   Total Number of Registers:       1620
   Max Register Usage Per Cycle:    150
   Avg Register Usage Per Cycle:    58.741343
   Avg Register Size (Bytes):       5.073357

   ========= Memory Configuration =================
   Cache Bus Ports:                 0
   Shared Cache Size:               0kB
   Local Bus Ports:                 0
   Private SPM Size:                112kB
   Private Read Ports:              0
   Private Write Ports:             0
   Private Read Bus Width:          64
   Private Write Bus Width:         64
       Memory Reads:                0
       Memory Writes:               0
   ========= Power Analysis ======================
   FU Leakage Power:                1.578062 mW 
   FU Dynamic Power:                9.658651 mW 
   FU Total Power:                  11.236713 mW 

   Registers Leakage Power:          0.021654 mW 
   Registers Dynamic Power:          3.086138 mW 
       Register Reads (Bits):        2049133
       Register Writes (Bits):       2049168
   Registers Total Power:            3.107792 mW

   SPM Leakage Power:               0.061081 mW
   SPM Read Dynamic Power:          22.020363 mW
   SPM Write Dynamic Power:         14.973773 mW
   SPM Total Power:                 37.055217 mW

   Cache Leakage Power:             0.000000 mW
   Cache Read Dynamic Power:        0.000000 mW
   Cache Write Dynamic Power:       0.000000 mW
   Cache Total Power:               0.000000 mW

   Accelerator Power:               14.344505 mW
   Accelerator Power (SPM):         51.399723 mW
   Accelerator Power (Cache):       14.344505 mW

   ========= Area Analysis =======================
   FU Area:                         170581.953125 um^2 (0.170582 mm^2)
   Register Area:                   1760.064941 um^2 (0.001760 mm^2)
   SPM Area:                        2165.394891 um^2 (0.002165 mm^2)
   Cache Area:                      0.000000 um^2 (0.000000 mm^2)

   Accelerator Area:                172342.015625 um^2 (0.172342 mm^2)
   Accelerator Area (SPM):          174507.410516 um^2 (0.174507 mm^2)
   Accelerator Area (Cache):        172342.015625 um^2 (0.172342 mm^2)

   ========= SPM Resizing  =======================
   SPM Optimized Leakage Power:     0.005889 mW
   SPM Opt Area:                    420.258807 um^2

740371250: global: Timer #0 started at tick 740371250
740678750: global: Timer #3 started at tick 740678750
740880000: global: Timer #3 stopped at tick 740880000. Duration: 201250
740930000: global: Timer #2 started at tick 740930000
740996875: global: Timer #2 stopped at tick 740996875. Duration: 66875
741228125: global: DAG ID = 3
741241875: global: Node ID = 0
741255000: global: Node deadline difference = -81
741267500: global: Predicted memory time / byte = 0 us/byte
741280000: global: Predicted memory time = 0 us
741292500: global: Predicted memory time / byte = 0.000173172 us/byte
741305000: global: Predicted memory time = 11.4384 us
741317500: global: Predicted memory time / byte = 0.000224793 us/byte
741330000: global: Predicted memory time = 3 us
741342500: global: Predicted memory time / byte = 0 us/byte
741355000: global: Predicted memory time = 0 us
742160875: system.acctest.grayscale0_dma: SRC:0x0000000027010224, DST:0x0000000025000020, LEN:49152
746530000: system.acctest.isp0_dma: SRC:0x00000000821a10c0, DST:0x0000000027000020, LEN:16900
746705000: global: Timer #0 stopped at tick 746705000. Duration: 6333750
746714375: global: Number of accelerators running = 4
749850000: system.acctest.isp0_dma: Transfer completed in 3.32 us
749933750: global: Timer #0 started at tick 749933750
750106875: global: Timer #1 started at tick 750106875
750301875: global: Timer #1 stopped at tick 750301875. Duration: 195000
751531250: global: Timer #0 stopped at tick 751531250. Duration: 1597500
751545625: global: Number of accelerators running = 4
751728875: system.acctest.grayscale0_dma: Transfer completed in 9.568 us
751813750: global: Timer #0 started at tick 751813750
751899375: global: Timer #1 started at tick 751899375
752083750: global: Timer #1 stopped at tick 752083750. Duration: 184375
753050625: global: Timer #0 stopped at tick 753050625. Duration: 1236875
753065000: global: Number of accelerators running = 4
********************************************************************************
system.acctest.grayscale0.compute
   ========= Performance Analysis =============
   Setup Time:                      0.020572seconds
   Simulation Time:                 267.014229seconds
   System Clock:                    1.000000GHz
   Transistor Latency:              1ns
   Runtime:                         10263 cycles
   Runtime:                         10.263000 us
   Stalls:                          1 cycles
   Executed Nodes:                  10261 cycles

********************************************************************************
   ========= Performance Analysis =================
   Setup Time:                      20571743.000000ns
   Simulation Time:                 267014228729.000031ns
   System Clock:                    1.000000GHz
   Transistor Latency:              0ns
   Runtime:                         10263 cycles
   Runtime:                         0.000001 seconds
   Stalls:                          1 cycles
       Load Only:                   0 cycles
       Store Only:                  1 cycles
       Compute Only:                0 cycles
       Compute & Store:             0 cycles
       Load & Store:                0 cycles
       Load & Compute:              0 cycles
       Load & Compute & Store:      0 cycles
   Executed Nodes:                  10261 cycles
       Load Only:                   0 cycles
       Store Only:                  1 cycles
       Compute Only:                88 cycles
       Compute & Store:             344 cycles
       Load & Store:                0 cycles
       Load & Compute:              1981 cycles
       Load & Compute & Store:      7847 cycles

   ========= Runtime FU's ========= (Max | Avg) ===
   Counter FU's:                      24 | 0.199556
   Integer Add/Sub FU's:               0 | 0.000000
   Integer Mul/Div FU's:               8 | 0.199552
   Integer Shifter FU's:               0 | 0.000000
   Integer Bitwise FU's:               1 | 0.000097
   Floating Point Float Add/Sub:      49 | 0.114264
   Floating Point Double Add/Sub:      0 | 0.000000
   Floating Point Float Mul/Div:      42 | 0.114129
   Floating Point Double Mul/Div:      0 | 0.000000
   0 Cycle Compare FU's:               9 | 0.066626
   GEP Instruction FU's:              36 | 0.177452
   Type Conversion FU's:              76 | 0.401969

   ========= Static FU's ==========================
   Counter FU's:                    0
   Integer Add/Sub FU's:            0
   Integer Mul/Div FU's:            0
   Integer Shifter FU's:            0
   Integer Bitwise FU's:            0
   Floating Point Float Add/Sub:    0
   Floating Point Double Add/Sub:   0
   Floating Point Float Mul/Div:    0
   Floating Point Double Mul/Div:   0
   0 Cycle Compare FU's:            0
   GEP Instruction FU's:            0
   Type Conversion FU's:            0
   Other:                           0

   ========= Pipeline Register Usage =============
   Total Number of Registers:       235
   Max Register Usage Per Cycle:    90
   Avg Register Usage Per Cycle:    33.924291
   Avg Register Size (Bytes):       5.841147

   ========= Memory Configuration =================
   Cache Bus Ports:                 0
   Shared Cache Size:               0kB
   Local Bus Ports:                 0
   Private SPM Size:                176kB
   Private Read Ports:              0
   Private Write Ports:             0
   Private Read Bus Width:          64
   Private Write Bus Width:         64
       Memory Reads:                0
       Memory Writes:               0
   ========= Power Analysis ======================
   FU Leakage Power:                1.178269 mW 
   FU Dynamic Power:                0.617392 mW 
   FU Total Power:                  1.795662 mW 

   Registers Leakage Power:          0.014185 mW 
   Registers Dynamic Power:          0.101057 mW 
       Register Reads (Bits):        348165
       Register Writes (Bits):       348168
   Registers Total Power:            0.115242 mW

   SPM Leakage Power:               0.089881 mW
   SPM Read Dynamic Power:          14.197905 mW
   SPM Write Dynamic Power:         8.746336 mW
   SPM Total Power:                 23.034123 mW

   Cache Leakage Power:             0.000000 mW
   Cache Read Dynamic Power:        0.000000 mW
   Cache Write Dynamic Power:       0.000000 mW
   Cache Total Power:               0.000000 mW

   Accelerator Power:               1.910904 mW
   Accelerator Power (SPM):         24.945026 mW
   Accelerator Power (Cache):       1.910904 mW

   ========= Area Analysis =======================
   FU Area:                         143348.187500 um^2 (0.143348 mm^2)
   Register Area:                   1152.968140 um^2 (0.001153 mm^2)
   SPM Area:                        3573.642862 um^2 (0.003574 mm^2)
   Cache Area:                      0.000000 um^2 (0.000000 mm^2)

   Accelerator Area:                144501.156250 um^2 (0.144501 mm^2)
   Accelerator Area (SPM):          148074.799112 um^2 (0.148075 mm^2)
   Accelerator Area (Cache):        144501.156250 um^2 (0.144501 mm^2)

   ========= SPM Resizing  =======================
   SPM Optimized Leakage Power:     0.003633 mW
   SPM Opt Area:                    364.024374 um^2

763163750: global: Timer #0 started at tick 763163750
763336875: global: Timer #3 started at tick 763336875
763491875: global: Timer #3 stopped at tick 763491875. Duration: 155000
763733125: global: Timer #2 started at tick 763733125
763843750: global: Timer #2 stopped at tick 763843750. Duration: 110625
777048750: system.acctest.grayscale0_dma: SRC:0x000000002500c020, DST:0x000000008218f200, LEN:65536
777408125: global: Timer #0 stopped at tick 777408125. Duration: 14244375
777422500: global: Number of accelerators running = 4
783330750: system.acctest.grayscale0_dma: Transfer completed in 6.282 us
783405625: global: Timer #0 started at tick 783405625
783445625: global: Timer #1 started at tick 783445625
783599375: global: Timer #1 stopped at tick 783599375. Duration: 153750
783910625: global: DAG ID = 3
783924375: global: Node ID = 1
783943750: global: Node deadline difference = -76
783956250: global: Predicted memory time / byte = 9.65881e-05 us/byte
783968750: global: Predicted memory time = 11.0775 us
783981250: global: Predicted memory time / byte = 9.65881e-05 us/byte
783993750: global: Predicted memory time = 11.0775 us
784006250: global: Predicted memory time / byte = 0.000195414 us/byte
784018750: global: Predicted memory time = 9 us
784031250: global: Predicted memory time / byte = 9.55811e-05 us/byte
784043750: global: Predicted memory time = 6 us
784140000: global: Timer #0 stopped at tick 784140000. Duration: 734375
784154375: global: Number of accelerators running = 3
********************************************************************************
system.acctest.isp0.compute
   ========= Performance Analysis =============
   Setup Time:                      0.616072seconds
   Simulation Time:                 615.015603seconds
   System Clock:                    1.000000GHz
   Transistor Latency:              1ns
   Runtime:                         34883 cycles
   Runtime:                         34.883000 us
   Stalls:                          1 cycles
   Executed Nodes:                  34881 cycles

********************************************************************************
   ========= Performance Analysis =================
   Setup Time:                      616072382.000000ns
   Simulation Time:                 615015602577.000000ns
   System Clock:                    1.000000GHz
   Transistor Latency:              0ns
   Runtime:                         34883 cycles
   Runtime:                         0.000003 seconds
   Stalls:                          1 cycles
       Load Only:                   0 cycles
       Store Only:                  1 cycles
       Compute Only:                0 cycles
       Compute & Store:             0 cycles
       Load & Store:                0 cycles
       Load & Compute:              0 cycles
       Load & Compute & Store:      0 cycles
   Executed Nodes:                  34881 cycles
       Load Only:                   0 cycles
       Store Only:                  1 cycles
       Compute Only:                3457 cycles
       Compute & Store:             19000 cycles
       Load & Store:                0 cycles
       Load & Compute:              2495 cycles
       Load & Compute & Store:      9928 cycles

   ========= Runtime FU's ========= (Max | Avg) ===
   Counter FU's:                      10 | 0.118072
   Integer Add/Sub FU's:              68 | 0.091698
   Integer Mul/Div FU's:              11 | 0.043887
   Integer Shifter FU's:              45 | 0.052264
   Integer Bitwise FU's:               4 | 0.059442
   Floating Point Float Add/Sub:      50 | 0.123644
   Floating Point Double Add/Sub:      0 | 0.000000
   Floating Point Float Mul/Div:      76 | 0.625254
   Floating Point Double Mul/Div:      0 | 0.000000
   0 Cycle Compare FU's:              85 | 0.665347
   GEP Instruction FU's:              33 | 0.117421
   Type Conversion FU's:             111 | 0.376402

   ========= Static FU's ==========================
   Counter FU's:                    0
   Integer Add/Sub FU's:            0
   Integer Mul/Div FU's:            0
   Integer Shifter FU's:            0
   Integer Bitwise FU's:            0
   Floating Point Float Add/Sub:    0
   Floating Point Double Add/Sub:   0
   Floating Point Float Mul/Div:    0
   Floating Point Double Mul/Div:   0
   0 Cycle Compare FU's:            0
   GEP Instruction FU's:            0
   Type Conversion FU's:            0
   Other:                           0

   ========= Pipeline Register Usage =============
   Total Number of Registers:       1620
   Max Register Usage Per Cycle:    150
   Avg Register Usage Per Cycle:    58.743027
   Avg Register Size (Bytes):       5.073357

   ========= Memory Configuration =================
   Cache Bus Ports:                 0
   Shared Cache Size:               0kB
   Local Bus Ports:                 0
   Private SPM Size:                112kB
   Private Read Ports:              0
   Private Write Ports:             0
   Private Read Bus Width:          64
   Private Write Bus Width:         64
       Memory Reads:                0
       Memory Writes:               0
   ========= Power Analysis ======================
   FU Leakage Power:                1.578062 mW 
   FU Dynamic Power:                9.648947 mW 
   FU Total Power:                  11.227009 mW 

   Registers Leakage Power:          0.021654 mW 
   Registers Dynamic Power:          3.086050 mW 
       Register Reads (Bits):        2049133
       Register Writes (Bits):       2049168
   Registers Total Power:            3.107704 mW

   SPM Leakage Power:               0.061081 mW
   SPM Read Dynamic Power:          24.677817 mW
   SPM Write Dynamic Power:         16.524603 mW
   SPM Total Power:                 41.263502 mW

   Cache Leakage Power:             0.000000 mW
   Cache Read Dynamic Power:        0.000000 mW
   Cache Write Dynamic Power:       0.000000 mW
   Cache Total Power:               0.000000 mW

   Accelerator Power:               14.334713 mW
   Accelerator Power (SPM):         55.598215 mW
   Accelerator Power (Cache):       14.334713 mW

   ========= Area Analysis =======================
   FU Area:                         170581.953125 um^2 (0.170582 mm^2)
   Register Area:                   1760.064941 um^2 (0.001760 mm^2)
   SPM Area:                        2165.394891 um^2 (0.002165 mm^2)
   Cache Area:                      0.000000 um^2 (0.000000 mm^2)

   Accelerator Area:                172342.015625 um^2 (0.172342 mm^2)
   Accelerator Area (SPM):          174507.410516 um^2 (0.174507 mm^2)
   Accelerator Area (Cache):        172342.015625 um^2 (0.172342 mm^2)

   ========= SPM Resizing  =======================
   SPM Optimized Leakage Power:     0.005889 mW
   SPM Opt Area:                    420.258807 um^2

786233750: global: Timer #0 started at tick 786233750
786406875: global: Timer #3 started at tick 786406875
786635000: global: Timer #3 stopped at tick 786635000. Duration: 228125
786682500: global: Timer #2 started at tick 786682500
786765000: global: Timer #2 stopped at tick 786765000. Duration: 82500
786998125: global: DAG ID = 4
787011875: global: Node ID = 0
787025000: global: Node deadline difference = -13767
787037500: global: Predicted memory time / byte = 0 us/byte
787050000: global: Predicted memory time = 0 us
787062500: global: Predicted memory time / byte = 9.65881e-05 us/byte
787075000: global: Predicted memory time = 6.37984 us
787087500: global: Predicted memory time / byte = 0.000201775 us/byte
787100000: global: Predicted memory time = 3 us
787112500: global: Predicted memory time / byte = 0 us/byte
787125000: global: Predicted memory time = 0 us
787936625: system.acctest.grayscale0_dma: SRC:0x0000000027004224, DST:0x0000000025000020, LEN:49152
792276000: system.acctest.isp0_dma: SRC:0x00000000822b6e00, DST:0x0000000027000020, LEN:16900
792451250: global: Timer #0 stopped at tick 792451250. Duration: 6217500
792460625: global: Number of accelerators running = 4
795540000: system.acctest.isp0_dma: Transfer completed in 3.264 us
795623750: global: Timer #0 started at tick 795623750
795755000: global: Timer #1 started at tick 795755000
795955625: global: Timer #1 stopped at tick 795955625. Duration: 200625
797137500: global: Timer #0 stopped at tick 797137500. Duration: 1513750
797151875: global: Number of accelerators running = 4
797507625: system.acctest.grayscale0_dma: Transfer completed in 9.571 us
797593125: global: Timer #0 started at tick 797593125
797678125: global: Timer #1 started at tick 797678125
797862500: global: Timer #1 stopped at tick 797862500. Duration: 184375
798816875: global: Timer #0 stopped at tick 798816875. Duration: 1223750
798831250: global: Number of accelerators running = 4
********************************************************************************
system.acctest.grayscale0.compute
   ========= Performance Analysis =============
   Setup Time:                      0.022742seconds
   Simulation Time:                 269.171539seconds
   System Clock:                    1.000000GHz
   Transistor Latency:              1ns
   Runtime:                         10263 cycles
   Runtime:                         10.263000 us
   Stalls:                          1 cycles
   Executed Nodes:                  10261 cycles

********************************************************************************
   ========= Performance Analysis =================
   Setup Time:                      22741597.000000ns
   Simulation Time:                 269171538643.000031ns
   System Clock:                    1.000000GHz
   Transistor Latency:              0ns
   Runtime:                         10263 cycles
   Runtime:                         0.000001 seconds
   Stalls:                          1 cycles
       Load Only:                   0 cycles
       Store Only:                  1 cycles
       Compute Only:                0 cycles
       Compute & Store:             0 cycles
       Load & Store:                0 cycles
       Load & Compute:              0 cycles
       Load & Compute & Store:      0 cycles
   Executed Nodes:                  10261 cycles
       Load Only:                   0 cycles
       Store Only:                  1 cycles
       Compute Only:                88 cycles
       Compute & Store:             344 cycles
       Load & Store:                0 cycles
       Load & Compute:              1981 cycles
       Load & Compute & Store:      7847 cycles

   ========= Runtime FU's ========= (Max | Avg) ===
   Counter FU's:                      24 | 0.199556
   Integer Add/Sub FU's:               0 | 0.000000
   Integer Mul/Div FU's:               8 | 0.199552
   Integer Shifter FU's:               0 | 0.000000
   Integer Bitwise FU's:               1 | 0.000097
   Floating Point Float Add/Sub:      49 | 0.114264
   Floating Point Double Add/Sub:      0 | 0.000000
   Floating Point Float Mul/Div:      42 | 0.114129
   Floating Point Double Mul/Div:      0 | 0.000000
   0 Cycle Compare FU's:               9 | 0.066626
   GEP Instruction FU's:              36 | 0.177452
   Type Conversion FU's:              76 | 0.401969

   ========= Static FU's ==========================
   Counter FU's:                    0
   Integer Add/Sub FU's:            0
   Integer Mul/Div FU's:            0
   Integer Shifter FU's:            0
   Integer Bitwise FU's:            0
   Floating Point Float Add/Sub:    0
   Floating Point Double Add/Sub:   0
   Floating Point Float Mul/Div:    0
   Floating Point Double Mul/Div:   0
   0 Cycle Compare FU's:            0
   GEP Instruction FU's:            0
   Type Conversion FU's:            0
   Other:                           0

   ========= Pipeline Register Usage =============
   Total Number of Registers:       235
   Max Register Usage Per Cycle:    90
   Avg Register Usage Per Cycle:    33.924291
   Avg Register Size (Bytes):       5.841147

   ========= Memory Configuration =================
   Cache Bus Ports:                 0
   Shared Cache Size:               0kB
   Local Bus Ports:                 0
   Private SPM Size:                176kB
   Private Read Ports:              0
   Private Write Ports:             0
   Private Read Bus Width:          64
   Private Write Bus Width:         64
       Memory Reads:                0
       Memory Writes:               0
   ========= Power Analysis ======================
   FU Leakage Power:                1.178269 mW 
   FU Dynamic Power:                0.617392 mW 
   FU Total Power:                  1.795662 mW 

   Registers Leakage Power:          0.014185 mW 
   Registers Dynamic Power:          0.101057 mW 
       Register Reads (Bits):        348165
       Register Writes (Bits):       348168
   Registers Total Power:            0.115242 mW

   SPM Leakage Power:               0.089881 mW
   SPM Read Dynamic Power:          15.554785 mW
   SPM Write Dynamic Power:         9.682262 mW
   SPM Total Power:                 25.326928 mW

   Cache Leakage Power:             0.000000 mW
   Cache Read Dynamic Power:        0.000000 mW
   Cache Write Dynamic Power:       0.000000 mW
   Cache Total Power:               0.000000 mW

   Accelerator Power:               1.910904 mW
   Accelerator Power (SPM):         27.237831 mW
   Accelerator Power (Cache):       1.910904 mW

   ========= Area Analysis =======================
   FU Area:                         143348.187500 um^2 (0.143348 mm^2)
   Register Area:                   1152.968140 um^2 (0.001153 mm^2)
   SPM Area:                        3573.642862 um^2 (0.003574 mm^2)
   Cache Area:                      0.000000 um^2 (0.000000 mm^2)

   Accelerator Area:                144501.156250 um^2 (0.144501 mm^2)
   Accelerator Area (SPM):          148074.799112 um^2 (0.148075 mm^2)
   Accelerator Area (Cache):        144501.156250 um^2 (0.144501 mm^2)

   ========= SPM Resizing  =======================
   SPM Optimized Leakage Power:     0.003633 mW
   SPM Opt Area:                    364.024374 um^2

808943750: global: Timer #0 started at tick 808943750
809116875: global: Timer #3 started at tick 809116875
809266875: global: Timer #3 stopped at tick 809266875. Duration: 150000
809308750: global: Timer #3 started at tick 809308750
809499375: global: Timer #3 stopped at tick 809499375. Duration: 190625
809556875: global: Timer #2 started at tick 809556875
809633750: global: Timer #2 stopped at tick 809633750. Duration: 76875
809669375: global: Timer #2 started at tick 809669375
809762500: global: Timer #2 stopped at tick 809762500. Duration: 93125
822943750: system.acctest.grayscale0_dma: SRC:0x000000002500c020, DST:0x00000000821b1480, LEN:65536
823303125: global: Timer #0 stopped at tick 823303125. Duration: 14359375
823317500: global: Number of accelerators running = 4
829219750: system.acctest.grayscale0_dma: Transfer completed in 6.276 us
829293125: global: Timer #0 started at tick 829293125
829342500: global: Timer #1 started at tick 829342500
829496250: global: Timer #1 stopped at tick 829496250. Duration: 153750
829807500: global: DAG ID = 4
829821250: global: Node ID = 1
829840625: global: Node deadline difference = -13761
829853125: global: Predicted memory time / byte = 9.55811e-05 us/byte
829865625: global: Predicted memory time = 10.962 us
829878125: global: Predicted memory time / byte = 9.55811e-05 us/byte
829890625: global: Predicted memory time = 10.962 us
829903125: global: Predicted memory time / byte = 0.000195496 us/byte
829915625: global: Predicted memory time = 9 us
829928125: global: Predicted memory time / byte = 9.56116e-05 us/byte
829940625: global: Predicted memory time = 6 us
830036875: global: Timer #0 stopped at tick 830036875. Duration: 743750
830051250: global: Number of accelerators running = 3
********************************************************************************
system.acctest.isp0.compute
   ========= Performance Analysis =============
   Setup Time:                      0.648678seconds
   Simulation Time:                 628.032168seconds
   System Clock:                    1.000000GHz
   Transistor Latency:              1ns
   Runtime:                         34883 cycles
   Runtime:                         34.883000 us
   Stalls:                          1 cycles
   Executed Nodes:                  34881 cycles

********************************************************************************
   ========= Performance Analysis =================
   Setup Time:                      648678367.000000ns
   Simulation Time:                 628032168033.000000ns
   System Clock:                    1.000000GHz
   Transistor Latency:              0ns
   Runtime:                         34883 cycles
   Runtime:                         0.000003 seconds
   Stalls:                          1 cycles
       Load Only:                   0 cycles
       Store Only:                  1 cycles
       Compute Only:                0 cycles
       Compute & Store:             0 cycles
       Load & Store:                0 cycles
       Load & Compute:              0 cycles
       Load & Compute & Store:      0 cycles
   Executed Nodes:                  34881 cycles
       Load Only:                   0 cycles
       Store Only:                  1 cycles
       Compute Only:                3457 cycles
       Compute & Store:             19000 cycles
       Load & Store:                0 cycles
       Load & Compute:              2495 cycles
       Load & Compute & Store:      9928 cycles

   ========= Runtime FU's ========= (Max | Avg) ===
   Counter FU's:                      10 | 0.118072
   Integer Add/Sub FU's:              68 | 0.091698
   Integer Mul/Div FU's:              11 | 0.043887
   Integer Shifter FU's:              45 | 0.052264
   Integer Bitwise FU's:               4 | 0.059442
   Floating Point Float Add/Sub:      50 | 0.123644
   Floating Point Double Add/Sub:      0 | 0.000000
   Floating Point Float Mul/Div:      76 | 0.625255
   Floating Point Double Mul/Div:      0 | 0.000000
   0 Cycle Compare FU's:              85 | 0.665328
   GEP Instruction FU's:              33 | 0.117421
   Type Conversion FU's:             111 | 0.376403

   ========= Static FU's ==========================
   Counter FU's:                    0
   Integer Add/Sub FU's:            0
   Integer Mul/Div FU's:            0
   Integer Shifter FU's:            0
   Integer Bitwise FU's:            0
   Floating Point Float Add/Sub:    0
   Floating Point Double Add/Sub:   0
   Floating Point Float Mul/Div:    0
   Floating Point Double Mul/Div:   0
   0 Cycle Compare FU's:            0
   GEP Instruction FU's:            0
   Type Conversion FU's:            0
   Other:                           0

   ========= Pipeline Register Usage =============
   Total Number of Registers:       1620
   Max Register Usage Per Cycle:    150
   Avg Register Usage Per Cycle:    58.743027
   Avg Register Size (Bytes):       5.073357

   ========= Memory Configuration =================
   Cache Bus Ports:                 0
   Shared Cache Size:               0kB
   Local Bus Ports:                 0
   Private SPM Size:                112kB
   Private Read Ports:              0
   Private Write Ports:             0
   Private Read Bus Width:          64
   Private Write Bus Width:         64
       Memory Reads:                0
       Memory Writes:               0
   ========= Power Analysis ======================
   FU Leakage Power:                1.578062 mW 
   FU Dynamic Power:                9.648892 mW 
   FU Total Power:                  11.226954 mW 

   Registers Leakage Power:          0.021654 mW 
   Registers Dynamic Power:          3.086050 mW 
       Register Reads (Bits):        2049133
       Register Writes (Bits):       2049168
   Registers Total Power:            3.107704 mW

   SPM Leakage Power:               0.061081 mW
   SPM Read Dynamic Power:          26.303286 mW
   SPM Write Dynamic Power:         18.122507 mW
   SPM Total Power:                 44.486874 mW

   Cache Leakage Power:             0.000000 mW
   Cache Read Dynamic Power:        0.000000 mW
   Cache Write Dynamic Power:       0.000000 mW
   Cache Total Power:               0.000000 mW

   Accelerator Power:               14.334659 mW
   Accelerator Power (SPM):         58.821533 mW
   Accelerator Power (Cache):       14.334659 mW

   ========= Area Analysis =======================
   FU Area:                         170581.953125 um^2 (0.170582 mm^2)
   Register Area:                   1760.064941 um^2 (0.001760 mm^2)
[...]
   0 Cycle Compare FU's:              40 | 0.145727
   GEP Instruction FU's:               4 | 0.132683
   Type Conversion FU's:               7 | 0.186618

   ========= Static FU's ==========================
   Counter FU's:                    0
   Integer Add/Sub FU's:            0
   Integer Mul/Div FU's:            0
   Integer Shifter FU's:            0
   Integer Bitwise FU's:            0
   Floating Point Float Add/Sub:    0
   Floating Point Double Add/Sub:   0
   Floating Point Float Mul/Div:    0
   Floating Point Double Mul/Div:   0
   0 Cycle Compare FU's:            0
   GEP Instruction FU's:            0
   Type Conversion FU's:            0
   Other:                           0

   ========= Pipeline Register Usage =============
   Total Number of Registers:       1702
   Max Register Usage Per Cycle:    29
   Avg Register Usage Per Cycle:    6.348292
   Avg Register Size (Bytes):       5.569125

   ========= Memory Configuration =================
   Cache Bus Ports:                 0
   Shared Cache Size:               0kB
   Local Bus Ports:                 0
   Private SPM Size:                192kB
   Private Read Ports:              0
   Private Write Ports:             0
   Private Read Bus Width:          64
   Private Write Bus Width:         64
       Memory Reads:                0
       Memory Writes:               0
   ========= Power Analysis ======================
   FU Leakage Power:                0.273186 mW 
   FU Dynamic Power:                2749.918213 mW 
   FU Total Power:                  2750.191406 mW 

   Registers Leakage Power:          0.002459 mW 
   Registers Dynamic Power:          75.251389 mW 
       Register Reads (Bits):        9811952
       Register Writes (Bits):       10049727
   Registers Total Power:            75.253845 mW

   SPM Leakage Power:               0.078311 mW
   SPM Read Dynamic Power:          56.508118 mW
   SPM Write Dynamic Power:         10.084569 mW
   SPM Total Power:                 66.670998 mW

   Cache Leakage Power:             0.000000 mW
   Cache Read Dynamic Power:        0.000000 mW
   Cache Write Dynamic Power:       0.000000 mW
   Cache Total Power:               0.000000 mW

   Accelerator Power:               2825.445312 mW
   Accelerator Power (SPM):         2892.116310 mW
   Accelerator Power (Cache):       2825.445312 mW

   ========= Area Analysis =======================
   FU Area:                         33249.839844 um^2 (0.033250 mm^2)
   Register Area:                   199.868088 um^2 (0.000200 mm^2)
   SPM Area:                        1748.188735 um^2 (0.001748 mm^2)
   Cache Area:                      0.000000 um^2 (0.000000 mm^2)

   Accelerator Area:                33449.707031 um^2 (0.033450 mm^2)
   Accelerator Area (SPM):          35197.895767 um^2 (0.035198 mm^2)
   Accelerator Area (Cache):        33449.707031 um^2 (0.033450 mm^2)

   ========= SPM Resizing  =======================
   SPM Optimized Leakage Power:     0.002053 mW
   SPM Opt Area:                    145.024971 um^2

44751073750: system.acctest.elem_matrix0_dma: SRC:0x000000008216ecc0, DST:0x0000000024000020, LEN:65536
44751272500: global: Timer #0 stopped at tick 44751272500. Duration: 14680625
44751286250: global: Number of accelerators running = 2
44751403125: global: Timer #0 started at tick 44751403125
44751569375: global: Timer #3 started at tick 44751569375
44751714375: global: Timer #3 stopped at tick 44751714375. Duration: 145000
44751761875: global: Timer #2 started at tick 44751761875
44751828750: global: Timer #2 stopped at tick 44751828750. Duration: 66875
44752053750: global: DAG ID = 2
44752067500: global: Node ID = 20
44752080625: global: Node deadline difference = 27615
44752093125: global: Predicted memory time / byte = 0.000156876 us/byte
44752105625: global: Predicted memory time = 20.5777 us
44752118125: global: Predicted memory time / byte = 9.91821e-05 us/byte
44752130625: global: Predicted memory time = 13.0099 us
44752143125: global: Predicted memory time / byte = 0.000270172 us/byte
44752155625: global: Predicted memory time = 17 us
44752168125: global: Predicted memory time / byte = 0 us/byte
44752180625: global: Predicted memory time = 0 us
44763044750: system.acctest.elem_matrix0_dma: Transfer completed in 11.971 us
44765749500: system.acctest.elem_matrix1_dma: SRC:0x000000008210cb80, DST:0x0000000024100020, LEN:65536
44765948125: global: Timer #0 stopped at tick 44765948125. Duration: 14545000
44765961875: global: Number of accelerators running = 2
44766078750: global: Timer #0 started at tick 44766078750
44766166875: global: Timer #1 started at tick 44766166875
44766437500: global: Timer #1 stopped at tick 44766437500. Duration: 270625
44767669000: system.acctest.elem_matrix0_dma: SRC:0x0000000022120020, DST:0x0000000024010020, LEN:65536
44767888125: global: Timer #0 stopped at tick 44767888125. Duration: 1809375
44767902500: global: Number of accelerators running = 2
44777765500: system.acctest.elem_matrix1_dma: Transfer completed in 12.016 us
44777850000: global: Timer #0 started at tick 44777850000
44777935000: global: Timer #1 started at tick 44777935000
44778076875: global: Timer #1 stopped at tick 44778076875. Duration: 141875
44779208000: system.acctest.elem_matrix1_dma: SRC:0x0000000022020020, DST:0x0000000024110020, LEN:65536
44779430625: global: Timer #0 stopped at tick 44779430625. Duration: 1580625
44779445000: global: Number of accelerators running = 2
44784180000: system.acctest.elem_matrix0_dma: Transfer completed in 16.511 us
44784263750: global: Timer #0 started at tick 44784263750
44784396875: global: Timer #1 started at tick 44784396875
44784538750: global: Timer #1 stopped at tick 44784538750. Duration: 141875
44786251250: global: Timer #0 stopped at tick 44786251250. Duration: 1987500
44786265625: global: Number of accelerators running = 2
44791358000: system.acctest.elem_matrix1_dma: Transfer completed in 12.15 us
44791443125: global: Timer #0 started at tick 44791443125
44791524375: global: Timer #1 started at tick 44791524375
44791666250: global: Timer #1 stopped at tick 44791666250. Duration: 141875
44793267500: global: Timer #0 stopped at tick 44793267500. Duration: 1824375
44793281875: global: Number of accelerators running = 2
********************************************************************************
system.acctest.elem_matrix0.compute
   ========= Performance Analysis =============
   Setup Time:                      3.890888seconds
   Simulation Time:                 120.199919seconds
   System Clock:                    1.000000GHz
   Transistor Latency:              1ns
   Runtime:                         10932 cycles
   Runtime:                         10.932000 us
   Stalls:                          1 cycles
   Executed Nodes:                  10930 cycles

********************************************************************************
   ========= Performance Analysis =================
   Setup Time:                      3890888445.000000ns
   Simulation Time:                 120199919086.000000ns
   System Clock:                    1.000000GHz
   Transistor Latency:              0ns
   Runtime:                         10932 cycles
   Runtime:                         0.000001 seconds
   Stalls:                          1 cycles
       Load Only:                   0 cycles
       Store Only:                  1 cycles
       Compute Only:                0 cycles
       Compute & Store:             0 cycles
       Load & Store:                0 cycles
       Load & Compute:              0 cycles
       Load & Compute & Store:      0 cycles
   Executed Nodes:                  10930 cycles
       Load Only:                   0 cycles
       Store Only:                  4 cycles
       Compute Only:                1 cycles
       Compute & Store:             21 cycles
       Load & Store:                0 cycles
       Load & Compute:              6 cycles
       Load & Compute & Store:      10898 cycles

   ========= Runtime FU's ========= (Max | Avg) ===
   Counter FU's:                      32 | 0.046838
   Integer Add/Sub FU's:               0 | 0.000000
   Integer Mul/Div FU's:               0 | 0.000000
   Integer Shifter FU's:               0 | 0.000000
   Integer Bitwise FU's:               1 | 0.000091
   Floating Point Float Add/Sub:       0 | 0.000000
   Floating Point Double Add/Sub:      0 | 0.000000
   Floating Point Float Mul/Div:      34 | 0.044252
   Floating Point Double Mul/Div:      0 | 0.000000
   0 Cycle Compare FU's:             102 | 0.046945
   GEP Instruction FU's:              96 | 0.046835
   Type Conversion FU's:               7 | 0.006782

   ========= Static FU's ==========================
   Counter FU's:                    0
   Integer Add/Sub FU's:            0
   Integer Mul/Div FU's:            0
   Integer Shifter FU's:            0
   Integer Bitwise FU's:            0
   Floating Point Float Add/Sub:    0
   Floating Point Double Add/Sub:   0
   Floating Point Float Mul/Div:    0
   Floating Point Double Mul/Div:   0
   0 Cycle Compare FU's:            0
   GEP Instruction FU's:            0
   Type Conversion FU's:            0
   Other:                           0

   ========= Pipeline Register Usage =============
   Total Number of Registers:       5641
   Max Register Usage Per Cycle:    137
   Avg Register Usage Per Cycle:    12.130992
   Avg Register Size (Bytes):       5.980606

   ========= Memory Configuration =================
   Cache Bus Ports:                 0
   Shared Cache Size:               0kB
   Local Bus Ports:                 0
   Private SPM Size:                256kB
   Private Read Ports:              0
   Private Write Ports:             0
   Private Read Bus Width:          64
   Private Write Bus Width:         64
       Memory Reads:                0
       Memory Writes:               0
   ========= Power Analysis ======================
   FU Leakage Power:                0.045377 mW 
   FU Dynamic Power:                0.142576 mW 
   FU Total Power:                  0.187953 mW 

   Registers Leakage Power:          0.005281 mW 
   Registers Dynamic Power:          0.015326 mW 
       Register Reads (Bits):        132616
       Register Writes (Bits):       133658
   Registers Total Power:            0.020607 mW

   SPM Leakage Power:               0.104100 mW
   SPM Read Dynamic Power:          15.103799 mW
   SPM Write Dynamic Power:         11.115965 mW
   SPM Total Power:                 26.323865 mW

   Cache Leakage Power:             0.000000 mW
   Cache Read Dynamic Power:        0.000000 mW
   Cache Write Dynamic Power:       0.000000 mW
   Cache Total Power:               0.000000 mW

   Accelerator Power:               0.208559 mW
   Accelerator Power (SPM):         26.532424 mW
   Accelerator Power (Cache):       0.208559 mW

   ========= Area Analysis =======================
   FU Area:                         5472.068359 um^2 (0.005472 mm^2)
   Register Area:                   429.271088 um^2 (0.000429 mm^2)
   SPM Area:                        2177.365505 um^2 (0.002177 mm^2)
   Cache Area:                      0.000000 um^2 (0.000000 mm^2)

   Accelerator Area:                5901.339355 um^2 (0.005901 mm^2)
   Accelerator Area (SPM):          8078.704860 um^2 (0.008079 mm^2)
   Accelerator Area (Cache):        5901.339355 um^2 (0.005901 mm^2)

   ========= SPM Resizing  =======================
   SPM Optimized Leakage Power:     0.004248 mW
   SPM Opt Area:                    178.524902 um^2

44797041875: global: Timer #0 started at tick 44797041875
********************************************************************************
system.acctest.elem_matrix1.compute
   ========= Performance Analysis =============
   Setup Time:                      3.178195seconds
   Simulation Time:                 119.462292seconds
   System Clock:                    1.000000GHz
   Transistor Latency:              1ns
   Runtime:                         10932 cycles
   Runtime:                         10.932000 us
   Stalls:                          1 cycles
   Executed Nodes:                  10930 cycles

********************************************************************************
   ========= Performance Analysis =================
   Setup Time:                      3178195090.000000ns
   Simulation Time:                 119462292049.000000ns
   System Clock:                    1.000000GHz
   Transistor Latency:              0ns
   Runtime:                         10932 cycles
   Runtime:                         0.000001 seconds
   Stalls:                          1 cycles
       Load Only:                   0 cycles
       Store Only:                  1 cycles
       Compute Only:                0 cycles
       Compute & Store:             0 cycles
       Load & Store:                0 cycles
       Load & Compute:              0 cycles
       Load & Compute & Store:      0 cycles
   Executed Nodes:                  10930 cycles
       Load Only:                   0 cycles
       Store Only:                  4 cycles
       Compute Only:                1 cycles
       Compute & Store:             21 cycles
       Load & Store:                0 cycles
       Load & Compute:              6 cycles
       Load & Compute & Store:      10898 cycles

   ========= Runtime FU's ========= (Max | Avg) ===
   Counter FU's:                      32 | 0.046838
   Integer Add/Sub FU's:               0 | 0.000000
   Integer Mul/Div FU's:               0 | 0.000000
   Integer Shifter FU's:               0 | 0.000000
   Integer Bitwise FU's:               1 | 0.000091
   Floating Point Float Add/Sub:       0 | 0.000000
   Floating Point Double Add/Sub:      0 | 0.000000
   Floating Point Float Mul/Div:      34 | 0.044252
   Floating Point Double Mul/Div:      0 | 0.000000
   0 Cycle Compare FU's:             102 | 0.046945
   GEP Instruction FU's:              96 | 0.046835
   Type Conversion FU's:               7 | 0.006782

   ========= Static FU's ==========================
   Counter FU's:                    0
   Integer Add/Sub FU's:            0
   Integer Mul/Div FU's:            0
   Integer Shifter FU's:            0
   Integer Bitwise FU's:            0
   Floating Point Float Add/Sub:    0
   Floating Point Double Add/Sub:   0
   Floating Point Float Mul/Div:    0
   Floating Point Double Mul/Div:   0
   0 Cycle Compare FU's:            0
   GEP Instruction FU's:            0
   Type Conversion FU's:            0
   Other:                           0

   ========= Pipeline Register Usage =============
   Total Number of Registers:       5641
   Max Register Usage Per Cycle:    137
   Avg Register Usage Per Cycle:    12.130992
   Avg Register Size (Bytes):       5.980606

   ========= Memory Configuration =================
   Cache Bus Ports:                 0
   Shared Cache Size:               0kB
   Local Bus Ports:                 0
   Private SPM Size:                256kB
   Private Read Ports:              0
   Private Write Ports:             0
   Private Read Bus Width:          64
   Private Write Bus Width:         64
       Memory Reads:                0
       Memory Writes:               0
   ========= Power Analysis ======================
   FU Leakage Power:                0.045377 mW 
   FU Dynamic Power:                0.142576 mW 
   FU Total Power:                  0.187953 mW 

   Registers Leakage Power:          0.005281 mW 
   Registers Dynamic Power:          0.015326 mW 
       Register Reads (Bits):        132616
       Register Writes (Bits):       133658
   Registers Total Power:            0.020607 mW

   SPM Leakage Power:               0.104100 mW
   SPM Read Dynamic Power:          10.542253 mW
   SPM Write Dynamic Power:         9.286945 mW
   SPM Total Power:                 19.933299 mW

   Cache Leakage Power:             0.000000 mW
   Cache Read Dynamic Power:        0.000000 mW
   Cache Write Dynamic Power:       0.000000 mW
   Cache Total Power:               0.000000 mW

   Accelerator Power:               0.208559 mW
   Accelerator Power (SPM):         20.141858 mW
   Accelerator Power (Cache):       0.208559 mW

   ========= Area Analysis =======================
   FU Area:                         5472.068359 um^2 (0.005472 mm^2)
   Register Area:                   429.271088 um^2 (0.000429 mm^2)
   SPM Area:                        2177.365505 um^2 (0.002177 mm^2)
   Cache Area:                      0.000000 um^2 (0.000000 mm^2)

   Accelerator Area:                5901.339355 um^2 (0.005901 mm^2)
   Accelerator Area (SPM):          8078.704860 um^2 (0.008079 mm^2)
   Accelerator Area (Cache):        5901.339355 um^2 (0.005901 mm^2)

   ========= SPM Resizing  =======================
   SPM Optimized Leakage Power:     0.004248 mW
   SPM Opt Area:                    178.524902 um^2

44810358750: system.acctest.elem_matrix0_dma: SRC:0x0000000024020020, DST:0x000000008216ecc0, LEN:65536
44810701875: global: Timer #0 stopped at tick 44810701875. Duration: 13660000
44810716250: global: Number of accelerators running = 2
44810850000: global: Timer #0 started at tick 44810850000
44817085750: system.acctest.elem_matrix0_dma: Transfer completed in 6.727 us
44824578750: system.acctest.elem_matrix1_dma: SRC:0x0000000024120020, DST:0x000000008210cb80, LEN:65536
44824921875: global: Timer #0 stopped at tick 44824921875. Duration: 14071875
44824936250: global: Number of accelerators running = 2
44825053125: global: Timer #0 started at tick 44825053125
44825105625: global: Timer #1 started at tick 44825105625
44825247500: global: Timer #1 stopped at tick 44825247500. Duration: 141875
44825565625: global: DAG ID = 3
44825579375: global: Node ID = 21
44825603750: global: DAG execution time = 44298
44825616875: global: DAG deadline difference = 27631
44825635000: global: Node deadline difference = 27631
44825647500: global: Predicted memory time / byte = 9.67712e-05 us/byte
44825660000: global: Predicted memory time = 19.026 us
44825672500: global: Predicted memory time / byte = 9.67712e-05 us/byte
44825685000: global: Predicted memory time = 19.026 us
44825697500: global: Predicted memory time / byte = 0.00024086 us/byte
44825710000: global: Predicted memory time = 30 us
44825722500: global: Predicted memory time / byte = 0.000222992 us/byte
44825735000: global: Predicted memory time = 14 us
44825830625: global: Timer #0 stopped at tick 44825830625. Duration: 777500
44825845000: global: Number of accelerators running = 1
44830905750: system.acctest.elem_matrix1_dma: Transfer completed in 6.327 us
44830991250: global: Timer #0 started at tick 44830991250
44831043750: global: Timer #1 started at tick 44831043750
44831185625: global: Timer #1 stopped at tick 44831185625. Duration: 141875
44831497500: global: DAG ID = 2
44831511250: global: Node ID = 21
44831535625: global: DAG execution time = 44304
44831548750: global: DAG deadline difference = 27637
44831566875: global: Node deadline difference = 27637
44831579375: global: Predicted memory time / byte = 9.67712e-05 us/byte
44831591875: global: Predicted memory time = 19.026 us
44831604375: global: Predicted memory time / byte = 9.67712e-05 us/byte
44831616875: global: Predicted memory time = 19.026 us
44831629375: global: Predicted memory time / byte = 0.000184937 us/byte
44831641875: global: Predicted memory time = 24 us
44831654375: global: Predicted memory time / byte = 9.66186e-05 us/byte
44831666875: global: Predicted memory time = 6 us
44831762500: global: Timer #0 stopped at tick 44831762500. Duration: 771250
44831776875: global: Number of accelerators running = 0
44831853750: global: Number of forwards = 91
44831989375: global: Number of colocations = 14
44832008750: global: Number of DAG deadlines met = 0
44832028750: global: Number of node deadlines met = 20
44832063750: global: Total predicted compute time = 86820 us
Exiting @ tick 44832303125 because m5_exit instruction encountered
