gem5 Simulator System.  http://gem5.org
gem5 is copyrighted software; use the --copyright option for details.

gem5 compiled May 11 2023 13:12:28
gem5 started May 25 2023 10:32:09
gem5 executing on node4x10a.cs.rochester.edu, pid 64513
command line: /u/sgupta45/gem5-SALAM/build/ARM/gem5_bus.opt --debug-flags=HWACC,CommInterface,LLVMInterface,StreamDma,NoncoherentDma,TickTimer,SchedulerStats --outdir=BM_ARM_OUT/comb_2/canny_0_deblur_0_gru_4_harris_4_lstm_0_FCFS configs/SALAM/scheduler.py --mem-size=4GB --mem-type=LPDDR5_6400_1x16_BG_BL32 --kernel=/u/sgupta45/gem5-SALAM/benchmarks/scheduler/sw/bin_comb_2/canny_0_deblur_0_gru_4_harris_4_lstm_0_FCFS.elf --vans-config-path=/u/sgupta45/VANS/config --disk-image=/u/sgupta45/gem5-SALAM/baremetal/common/fake.iso --machine-type=VExpress_GEM5_V1 --dtb-file=none --bare-metal --cpu-type=ex5_LITTLE --cpu-clock=1.6GHz --accpath=/u/sgupta45/gem5-SALAM/benchmarks --caches --cacheline_size=64 --l1d_size=32kB --l1d_assoc=4 --l1i_size=32kB --l1i_assoc=2

Global frequency set at 1000000000000 ticks per second
Cycle Counts Loaded!
Cycle Counts Loaded!
Cycle Counts Loaded!
Cycle Counts Loaded!
Cycle Counts Loaded!
Cycle Counts Loaded!
Cycle Counts Loaded!
Cycle Counts Loaded!
Cycle Counts Loaded!
Cycle Counts Loaded!
Cycle Counts Loaded!
**** REAL SIMULATION ****
14572150625: global: Timer #2 started at tick 14572150625
14572405625: global: Timer #2 stopped at tick 14572405625. Duration: 255000
14593068125: global: Timer #2 started at tick 14593068125
14593108750: global: Timer #2 stopped at tick 14593108750. Duration: 40625
14612831250: global: Timer #2 started at tick 14612831250
14612871875: global: Timer #2 stopped at tick 14612871875. Duration: 40625
14632120625: global: Timer #2 started at tick 14632120625
14632196250: global: Timer #2 stopped at tick 14632196250. Duration: 75625
14651609375: global: Timer #2 started at tick 14651609375
14651639375: global: Timer #2 stopped at tick 14651639375. Duration: 30000
14654558750: global: Timer #2 started at tick 14654558750
14654590625: global: Timer #2 stopped at tick 14654590625. Duration: 31875
14657801875: global: Timer #2 started at tick 14657801875
14657834375: global: Timer #2 stopped at tick 14657834375. Duration: 32500
14661037500: global: Timer #2 started at tick 14661037500
14661069375: global: Timer #2 stopped at tick 14661069375. Duration: 31875
14679825875: system.acctest.elem_matrix0_dma: SRC:0x0000000082178940, DST:0x0000000024000020, LEN:65536
14692171875: system.acctest.elem_matrix0_dma: Transfer completed in 12.346 us
14694279500: system.acctest.elem_matrix1_dma: SRC:0x0000000082993140, DST:0x0000000024100020, LEN:65536
14706302500: system.acctest.elem_matrix1_dma: Transfer completed in 12.023 us
14708277375: system.acctest.elem_matrix2_dma: SRC:0x00000000831ad940, DST:0x0000000024200020, LEN:65536
14720261375: system.acctest.elem_matrix2_dma: Transfer completed in 11.984 us
14722117375: system.acctest.elem_matrix3_dma: SRC:0x00000000839c8140, DST:0x0000000024300020, LEN:65536
14726895875: system.acctest.isp0_dma: SRC:0x00000000840e2a40, DST:0x0000000027000020, LEN:16900
14727291875: global: Number of accelerators running = 5
14727820625: global: Timer #0 started at tick 14727820625
14731943875: system.acctest.isp0_dma: Transfer completed in 5.048 us
14736000375: system.acctest.elem_matrix3_dma: Transfer completed in 13.883 us
14742683750: system.acctest.elem_matrix0_dma: SRC:0x0000000082078780, DST:0x0000000024010020, LEN:65536
14743265625: global: Timer #0 stopped at tick 14743265625. Duration: 15445000
14743325000: global: Number of accelerators running = 5
14743506250: global: Timer #0 started at tick 14743506250
14754709750: system.acctest.elem_matrix0_dma: Transfer completed in 12.026 us
14756975875: system.acctest.elem_matrix1_dma: SRC:0x0000000082892f80, DST:0x0000000024110020, LEN:65536
14757223125: global: Timer #0 stopped at tick 14757223125. Duration: 13716875
14757237500: global: Number of accelerators running = 5
14757441250: global: Timer #0 started at tick 14757441250
14768984875: system.acctest.elem_matrix1_dma: Transfer completed in 12.009 us
14770865875: system.acctest.elem_matrix2_dma: SRC:0x00000000830ad780, DST:0x0000000024210020, LEN:65536
14771092500: global: Timer #0 stopped at tick 14771092500. Duration: 13651250
14771106875: global: Number of accelerators running = 5
14771239375: global: Timer #0 started at tick 14771239375
14772391250: global: Timer #0 stopped at tick 14772391250. Duration: 1151875
14772405625: global: Number of accelerators running = 5
14772572500: global: Timer #0 started at tick 14772572500
14783061875: system.acctest.elem_matrix2_dma: Transfer completed in 12.196 us
14785965875: system.acctest.elem_matrix3_dma: SRC:0x00000000838c7f80, DST:0x0000000024310020, LEN:65536
14786176875: global: Timer #0 stopped at tick 14786176875. Duration: 13604375
14786191250: global: Number of accelerators running = 5
14786320000: global: Timer #0 started at tick 14786320000
14787697500: global: Timer #0 stopped at tick 14787697500. Duration: 1377500
14787711875: global: Number of accelerators running = 5
14787828125: global: Timer #0 started at tick 14787828125
14789163750: global: Timer #0 stopped at tick 14789163750. Duration: 1335625
14789178125: global: Number of accelerators running = 5
14789293125: global: Timer #0 started at tick 14789293125
14790625625: global: Timer #0 stopped at tick 14790625625. Duration: 1332500
14790640000: global: Number of accelerators running = 5
14797908875: system.acctest.elem_matrix3_dma: Transfer completed in 11.943 us
14797993125: global: Timer #0 started at tick 14797993125
********************************************************************************
system.acctest.elem_matrix0.compute
   ========= Performance Analysis =============
   Setup Time:                      3.46973seconds
   Simulation Time:                 650.857seconds
   System Clock:                    1GHz
   Transistor Latency:              1ns
   Runtime:                         10932 cycles
   Runtime:                         10.932 us
   Stalls:                          0 cycles
   Executed Nodes:                  10931 cycles

********************************************************************************
   ========= Performance Analysis =================
   Setup Time:                      3.46973e+09ns
   Simulation Time:                 6.50857e+11ns
   System Clock:                    1GHz
   Transistor Latency:              0ns
   Runtime:                         10932 cycles
   Runtime:                         1.0932e-06 seconds
   Stalls:                          0 cycles
       Load Only:                   0 cycles
       Store Only:                  0 cycles
       Compute Only:                0 cycles
       Compute & Store:             0 cycles
       Load & Store:                0 cycles
       Load & Compute:              0 cycles
       Load & Compute & Store:      0 cycles
   Executed Nodes:                  10931 cycles
       Load Only:                   0 cycles
       Store Only:                  5 cycles
       Compute Only:                1 cycles
       Compute & Store:             21 cycles
       Load & Store:                0 cycles
       Load & Compute:              7 cycles
       Load & Compute & Store:      10897 cycles

   ========= Runtime FU's ========= (Max | Avg) ===
   Counter FU's:                      32 | 0.046838
   Integer Add/Sub FU's:               0 | 0.000000
   Integer Mul/Div FU's:               0 | 0.000000
   Integer Shifter FU's:               0 | 0.000000
   Integer Bitwise FU's:               1 | 0.000091
   Floating Point Float Add/Sub:      34 | 0.044252
   Floating Point Double Add/Sub:      0 | 0.000000
   Floating Point Float Mul/Div:       0 | 0.000000
   Floating Point Double Mul/Div:      0 | 0.000000
   0 Cycle Compare FU's:             102 | 0.046974
   GEP Instruction FU's:              96 | 0.046835
   Type Conversion FU's:               7 | 0.006782

   ========= Static FU's ==========================
   Counter FU's:                    0
   Integer Add/Sub FU's:            0
   Integer Mul/Div FU's:            0
   Integer Shifter FU's:            0
   Integer Bitwise FU's:            0
   Floating Point Float Add/Sub:    0
   Floating Point Double Add/Sub:   0
   Floating Point Float Mul/Div:    0
   Floating Point Double Mul/Div:   0
   0 Cycle Compare FU's:            0
   GEP Instruction FU's:            0
   Type Conversion FU's:            0
   Other:                           0

   ========= Pipeline Register Usage =============
   Total Number of Registers:       5641
   Max Register Usage Per Cycle:    138
   Avg Register Usage Per Cycle:    12.130992
   Avg Register Size (Bytes):       5.980606

   ========= Memory Configuration =================
   Cache Bus Ports:                 0
   Shared Cache Size:               0kB
   Local Bus Ports:                 0
   Private SPM Size:                256kB
   Private Read Ports:              0
   Private Write Ports:             0
   Private Read Bus Width:          64
   Private Write Bus Width:         64
       Memory Reads:                0
       Memory Writes:               0
   ========= Power Analysis ======================
   FU Leakage Power:                0.519269 mW 
   FU Dynamic Power:                0.154621 mW 
   FU Total Power:                  0.673890 mW 

   Registers Leakage Power:          0.005281 mW 
   Registers Dynamic Power:          0.015326 mW 
       Register Reads (Bits):        132616
       Register Writes (Bits):       133658
   Registers Total Power:            0.020607 mW

   SPM Leakage Power:               0.104100 mW
   SPM Read Dynamic Power:          1.997266 mW
   SPM Write Dynamic Power:         0.953321 mW
   SPM Total Power:                 3.054688 mW

   Cache Leakage Power:             0.000000 mW
   Cache Read Dynamic Power:        0.000000 mW
   Cache Write Dynamic Power:       0.000000 mW
   Cache Total Power:               0.000000 mW

   Accelerator Power:               0.694497 mW
   Accelerator Power (SPM):         3.749184 mW
   Accelerator Power (Cache):       0.694497 mW

   ========= Area Analysis =======================
   FU Area:                         70212.562500 um^2 (0.070213 mm^2)
   Register Area:                   429.271088 um^2 (0.000429 mm^2)
   SPM Area:                        2177.365505 um^2 (0.002177 mm^2)
   Cache Area:                      0.000000 um^2 (0.000000 mm^2)

   Accelerator Area:                70641.835938 um^2 (0.070642 mm^2)
   Accelerator Area (SPM):          72819.201442 um^2 (0.072819 mm^2)
   Accelerator Area (Cache):        70641.835938 um^2 (0.070642 mm^2)

   ========= SPM Resizing  =======================
   SPM Optimized Leakage Power:     0.004248 mW
   SPM Opt Area:                    178.524902 um^2

14799318125: global: Timer #0 stopped at tick 14799318125. Duration: 1325000
14799332500: global: Number of accelerators running = 5
14799454375: global: Timer #0 started at tick 14799454375
********************************************************************************
system.acctest.elem_matrix1.compute
   ========= Performance Analysis =============
   Setup Time:                      3.710562seconds
   Simulation Time:                 710.935115seconds
   System Clock:                    1.000000GHz
   Transistor Latency:              1ns
   Runtime:                         10932 cycles
   Runtime:                         10.932000 us
   Stalls:                          0 cycles
   Executed Nodes:                  10931 cycles

********************************************************************************
   ========= Performance Analysis =================
   Setup Time:                      3710562005.000000ns
   Simulation Time:                 710935114888.000000ns
   System Clock:                    1.000000GHz
   Transistor Latency:              0ns
   Runtime:                         10932 cycles
   Runtime:                         0.000001 seconds
   Stalls:                          0 cycles
       Load Only:                   0 cycles
       Store Only:                  0 cycles
       Compute Only:                0 cycles
       Compute & Store:             0 cycles
       Load & Store:                0 cycles
       Load & Compute:              0 cycles
       Load & Compute & Store:      0 cycles
   Executed Nodes:                  10931 cycles
       Load Only:                   0 cycles
       Store Only:                  5 cycles
       Compute Only:                1 cycles
       Compute & Store:             21 cycles
       Load & Store:                0 cycles
       Load & Compute:              7 cycles
       Load & Compute & Store:      10897 cycles

   ========= Runtime FU's ========= (Max | Avg) ===
   Counter FU's:                      32 | 0.046838
   Integer Add/Sub FU's:               0 | 0.000000
   Integer Mul/Div FU's:               0 | 0.000000
   Integer Shifter FU's:               0 | 0.000000
   Integer Bitwise FU's:               1 | 0.000091
   Floating Point Float Add/Sub:      34 | 0.044252
   Floating Point Double Add/Sub:      0 | 0.000000
   Floating Point Float Mul/Div:       0 | 0.000000
   Floating Point Double Mul/Div:      0 | 0.000000
   0 Cycle Compare FU's:             102 | 0.046974
   GEP Instruction FU's:              96 | 0.046835
   Type Conversion FU's:               7 | 0.006782

   ========= Static FU's ==========================
   Counter FU's:                    0
   Integer Add/Sub FU's:            0
   Integer Mul/Div FU's:            0
   Integer Shifter FU's:            0
   Integer Bitwise FU's:            0
   Floating Point Float Add/Sub:    0
   Floating Point Double Add/Sub:   0
   Floating Point Float Mul/Div:    0
   Floating Point Double Mul/Div:   0
   0 Cycle Compare FU's:            0
   GEP Instruction FU's:            0
   Type Conversion FU's:            0
   Other:                           0

   ========= Pipeline Register Usage =============
   Total Number of Registers:       5641
   Max Register Usage Per Cycle:    138
   Avg Register Usage Per Cycle:    12.130992
   Avg Register Size (Bytes):       5.980606

   ========= Memory Configuration =================
   Cache Bus Ports:                 0
   Shared Cache Size:               0kB
   Local Bus Ports:                 0
   Private SPM Size:                256kB
   Private Read Ports:              0
   Private Write Ports:             0
   Private Read Bus Width:          64
   Private Write Bus Width:         64
       Memory Reads:                0
       Memory Writes:               0
   ========= Power Analysis ======================
   FU Leakage Power:                0.519269 mW 
   FU Dynamic Power:                0.154621 mW 
   FU Total Power:                  0.673890 mW 

   Registers Leakage Power:          0.005281 mW 
   Registers Dynamic Power:          0.015326 mW 
       Register Reads (Bits):        132616
       Register Writes (Bits):       133658
   Registers Total Power:            0.020607 mW

   SPM Leakage Power:               0.104100 mW
   SPM Read Dynamic Power:          1.997266 mW
   SPM Write Dynamic Power:         0.953321 mW
   SPM Total Power:                 3.054688 mW

   Cache Leakage Power:             0.000000 mW
   Cache Read Dynamic Power:        0.000000 mW
   Cache Write Dynamic Power:       0.000000 mW
   Cache Total Power:               0.000000 mW

   Accelerator Power:               0.694497 mW
   Accelerator Power (SPM):         3.749184 mW
   Accelerator Power (Cache):       0.694497 mW

   ========= Area Analysis =======================
   FU Area:                         70212.562500 um^2 (0.070213 mm^2)
   Register Area:                   429.271088 um^2 (0.000429 mm^2)
   SPM Area:                        2177.365505 um^2 (0.002177 mm^2)
   Cache Area:                      0.000000 um^2 (0.000000 mm^2)

   Accelerator Area:                70641.835938 um^2 (0.070642 mm^2)
   Accelerator Area (SPM):          72819.201442 um^2 (0.072819 mm^2)
   Accelerator Area (Cache):        70641.835938 um^2 (0.070642 mm^2)

   ========= SPM Resizing  =======================
   SPM Optimized Leakage Power:     0.004248 mW
   SPM Opt Area:                    178.524902 um^2

14799918750: global: Timer #2 started at tick 14799918750
14800091250: global: Timer #2 stopped at tick 14800091250. Duration: 172500
14800322500: global: Timer #2 started at tick 14800322500
14800363750: global: Timer #2 stopped at tick 14800363750. Duration: 41250
********************************************************************************
system.acctest.elem_matrix2.compute
   ========= Performance Analysis =============
   Setup Time:                      3.686504seconds
   Simulation Time:                 727.473189seconds
   System Clock:                    1.000000GHz
   Transistor Latency:              1ns
   Runtime:                         10932 cycles
   Runtime:                         10.932000 us
   Stalls:                          0 cycles
   Executed Nodes:                  10931 cycles

********************************************************************************
   ========= Performance Analysis =================
   Setup Time:                      3686504410.000000ns
   Simulation Time:                 727473188666.000000ns
   System Clock:                    1.000000GHz
   Transistor Latency:              0ns
   Runtime:                         10932 cycles
   Runtime:                         0.000001 seconds
   Stalls:                          0 cycles
       Load Only:                   0 cycles
       Store Only:                  0 cycles
       Compute Only:                0 cycles
       Compute & Store:             0 cycles
       Load & Store:                0 cycles
       Load & Compute:              0 cycles
       Load & Compute & Store:      0 cycles
   Executed Nodes:                  10931 cycles
       Load Only:                   0 cycles
       Store Only:                  5 cycles
       Compute Only:                1 cycles
       Compute & Store:             21 cycles
       Load & Store:                0 cycles
       Load & Compute:              7 cycles
       Load & Compute & Store:      10897 cycles

   ========= Runtime FU's ========= (Max | Avg) ===
   Counter FU's:                      32 | 0.046838
   Integer Add/Sub FU's:               0 | 0.000000
   Integer Mul/Div FU's:               0 | 0.000000
   Integer Shifter FU's:               0 | 0.000000
   Integer Bitwise FU's:               1 | 0.000091
   Floating Point Float Add/Sub:      34 | 0.044252
   Floating Point Double Add/Sub:      0 | 0.000000
   Floating Point Float Mul/Div:       0 | 0.000000
   Floating Point Double Mul/Div:      0 | 0.000000
   0 Cycle Compare FU's:             102 | 0.046974
   GEP Instruction FU's:              96 | 0.046835
   Type Conversion FU's:               7 | 0.006782

   ========= Static FU's ==========================
   Counter FU's:                    0
   Integer Add/Sub FU's:            0
   Integer Mul/Div FU's:            0
   Integer Shifter FU's:            0
   Integer Bitwise FU's:            0
   Floating Point Float Add/Sub:    0
   Floating Point Double Add/Sub:   0
   Floating Point Float Mul/Div:    0
   Floating Point Double Mul/Div:   0
   0 Cycle Compare FU's:            0
   GEP Instruction FU's:            0
   Type Conversion FU's:            0
   Other:                           0

   ========= Pipeline Register Usage =============
   Total Number of Registers:       5641
   Max Register Usage Per Cycle:    138
   Avg Register Usage Per Cycle:    12.130992
   Avg Register Size (Bytes):       5.980606

   ========= Memory Configuration =================
   Cache Bus Ports:                 0
   Shared Cache Size:               0kB
   Local Bus Ports:                 0
   Private SPM Size:                256kB
   Private Read Ports:              0
   Private Write Ports:             0
   Private Read Bus Width:          64
   Private Write Bus Width:         64
       Memory Reads:                0
       Memory Writes:               0
   ========= Power Analysis ======================
   FU Leakage Power:                0.519269 mW 
   FU Dynamic Power:                0.154621 mW 
   FU Total Power:                  0.673890 mW 

   Registers Leakage Power:          0.005281 mW 
   Registers Dynamic Power:          0.015326 mW 
       Register Reads (Bits):        132616
       Register Writes (Bits):       133658
   Registers Total Power:            0.020607 mW

   SPM Leakage Power:               0.104100 mW
   SPM Read Dynamic Power:          1.997266 mW
   SPM Write Dynamic Power:         0.953321 mW
   SPM Total Power:                 3.054688 mW

   Cache Leakage Power:             0.000000 mW
   Cache Read Dynamic Power:        0.000000 mW
   Cache Write Dynamic Power:       0.000000 mW
   Cache Total Power:               0.000000 mW

   Accelerator Power:               0.694497 mW
   Accelerator Power (SPM):         3.749184 mW
   Accelerator Power (Cache):       0.694497 mW

   ========= Area Analysis =======================
   FU Area:                         70212.562500 um^2 (0.070213 mm^2)
   Register Area:                   429.271088 um^2 (0.000429 mm^2)
   SPM Area:                        2177.365505 um^2 (0.002177 mm^2)
   Cache Area:                      0.000000 um^2 (0.000000 mm^2)

   Accelerator Area:                70641.835938 um^2 (0.070642 mm^2)
   Accelerator Area (SPM):          72819.201442 um^2 (0.072819 mm^2)
   Accelerator Area (Cache):        70641.835938 um^2 (0.070642 mm^2)

   ========= SPM Resizing  =======================
   SPM Optimized Leakage Power:     0.004248 mW
   SPM Opt Area:                    178.524902 um^2

********************************************************************************
system.acctest.isp0.compute
   ========= Performance Analysis =============
   Setup Time:                      0.150064seconds
   Simulation Time:                 1244.260607seconds
   System Clock:                    1.000000GHz
   Transistor Latency:              1ns
   Runtime:                         34882 cycles
   Runtime:                         34.882000 us
   Stalls:                          1 cycles
   Executed Nodes:                  34880 cycles

********************************************************************************
   ========= Performance Analysis =================
   Setup Time:                      150063720.000000ns
   Simulation Time:                 1244260607218.000000ns
   System Clock:                    1.000000GHz
   Transistor Latency:              0ns
   Runtime:                         34882 cycles
   Runtime:                         0.000003 seconds
   Stalls:                          1 cycles
       Load Only:                   0 cycles
       Store Only:                  1 cycles
       Compute Only:                0 cycles
       Compute & Store:             0 cycles
       Load & Store:                0 cycles
       Load & Compute:              0 cycles
       Load & Compute & Store:      0 cycles
   Executed Nodes:                  34880 cycles
       Load Only:                   0 cycles
       Store Only:                  1 cycles
       Compute Only:                3453 cycles
       Compute & Store:             19014 cycles
       Load & Store:                0 cycles
       Load & Compute:              2467 cycles
       Load & Compute & Store:      9945 cycles

   ========= Runtime FU's ========= (Max | Avg) ===
   Counter FU's:                      10 | 0.118075
   Integer Add/Sub FU's:              76 | 0.082082
   Integer Mul/Div FU's:              11 | 0.043888
   Integer Shifter FU's:              42 | 0.055974
   Integer Bitwise FU's:               4 | 0.059443
   Floating Point Float Add/Sub:      53 | 0.116839
   Floating Point Double Add/Sub:      0 | 0.000000
   Floating Point Float Mul/Div:      76 | 0.625626
   Floating Point Double Mul/Div:      0 | 0.000000
   0 Cycle Compare FU's:              85 | 0.664984
   GEP Instruction FU's:              33 | 0.117424
   Type Conversion FU's:             110 | 0.379700

   ========= Static FU's ==========================
   Counter FU's:                    0
   Integer Add/Sub FU's:            0
   Integer Mul/Div FU's:            0
   Integer Shifter FU's:            0
   Integer Bitwise FU's:            0
   Floating Point Float Add/Sub:    0
   Floating Point Double Add/Sub:   0
   Floating Point Float Mul/Div:    0
   Floating Point Double Mul/Div:   0
   0 Cycle Compare FU's:            0
   GEP Instruction FU's:            0
   Type Conversion FU's:            0
   Other:                           0

   ========= Pipeline Register Usage =============
   Total Number of Registers:       1620
   Max Register Usage Per Cycle:    151
   Avg Register Usage Per Cycle:    58.744711
   Avg Register Size (Bytes):       5.073357

   ========= Memory Configuration =================
   Cache Bus Ports:                 0
   Shared Cache Size:               0kB
   Local Bus Ports:                 0
   Private SPM Size:                112kB
   Private Read Ports:              0
   Private Write Ports:             0
   Private Read Bus Width:          64
   Private Write Bus Width:         64
       Memory Reads:                0
       Memory Writes:               0
   ========= Power Analysis ======================
   FU Leakage Power:                1.637787 mW 
   FU Dynamic Power:                9.655087 mW 
   FU Total Power:                  11.292874 mW 

   Registers Leakage Power:          0.021654 mW 
   Registers Dynamic Power:          3.085961 mW 
       Register Reads (Bits):        2049133
       Register Writes (Bits):       2049168
   Registers Total Power:            3.107615 mW

   SPM Leakage Power:               0.061081 mW
   SPM Read Dynamic Power:          11.103730 mW
   SPM Write Dynamic Power:         7.385230 mW
   SPM Total Power:                 18.550041 mW

   Cache Leakage Power:             0.000000 mW
   Cache Read Dynamic Power:        0.000000 mW
   Cache Write Dynamic Power:       0.000000 mW
   Cache Total Power:               0.000000 mW

   Accelerator Power:               14.400490 mW
   Accelerator Power (SPM):         32.950531 mW
   Accelerator Power (Cache):       14.400490 mW

   ========= Area Analysis =======================
   FU Area:                         176023.796875 um^2 (0.176024 mm^2)
   Register Area:                   1760.064941 um^2 (0.001760 mm^2)
   SPM Area:                        2165.394891 um^2 (0.002165 mm^2)
   Cache Area:                      0.000000 um^2 (0.000000 mm^2)

   Accelerator Area:                177783.859375 um^2 (0.177784 mm^2)
   Accelerator Area (SPM):          179949.254266 um^2 (0.179949 mm^2)
   Accelerator Area (Cache):        177783.859375 um^2 (0.177784 mm^2)

   ========= SPM Resizing  =======================
   SPM Optimized Leakage Power:     0.005964 mW
   SPM Opt Area:                    422.108128 um^2

********************************************************************************
system.acctest.elem_matrix3.compute
   ========= Performance Analysis =============
   Setup Time:                      11.652414seconds
   Simulation Time:                 436.253522seconds
   System Clock:                    1.000000GHz
   Transistor Latency:              1ns
   Runtime:                         10932 cycles
   Runtime:                         10.932000 us
   Stalls:                          0 cycles
   Executed Nodes:                  10931 cycles

********************************************************************************
   ========= Performance Analysis =================
   Setup Time:                      11652414397.000000ns
   Simulation Time:                 436253522420.000000ns
   System Clock:                    1.000000GHz
   Transistor Latency:              0ns
   Runtime:                         10932 cycles
   Runtime:                         0.000001 seconds
   Stalls:                          0 cycles
       Load Only:                   0 cycles
       Store Only:                  0 cycles
       Compute Only:                0 cycles
       Compute & Store:             0 cycles
       Load & Store:                0 cycles
       Load & Compute:              0 cycles
       Load & Compute & Store:      0 cycles
   Executed Nodes:                  10931 cycles
       Load Only:                   0 cycles
       Store Only:                  5 cycles
       Compute Only:                1 cycles
       Compute & Store:             21 cycles
       Load & Store:                0 cycles
       Load & Compute:              7 cycles
       Load & Compute & Store:      10897 cycles

   ========= Runtime FU's ========= (Max | Avg) ===
   Counter FU's:                      32 | 0.046838
   Integer Add/Sub FU's:               0 | 0.000000
   Integer Mul/Div FU's:               0 | 0.000000
   Integer Shifter FU's:               0 | 0.000000
   Integer Bitwise FU's:               1 | 0.000091
   Floating Point Float Add/Sub:      34 | 0.044252
   Floating Point Double Add/Sub:      0 | 0.000000
   Floating Point Float Mul/Div:       0 | 0.000000
   Floating Point Double Mul/Div:      0 | 0.000000
   0 Cycle Compare FU's:             102 | 0.046974
   GEP Instruction FU's:              96 | 0.046835
   Type Conversion FU's:               7 | 0.006782

   ========= Static FU's ==========================
   Counter FU's:                    0
   Integer Add/Sub FU's:            0
   Integer Mul/Div FU's:            0
   Integer Shifter FU's:            0
   Integer Bitwise FU's:            0
   Floating Point Float Add/Sub:    0
   Floating Point Double Add/Sub:   0
   Floating Point Float Mul/Div:    0
   Floating Point Double Mul/Div:   0
   0 Cycle Compare FU's:            0
   GEP Instruction FU's:            0
   Type Conversion FU's:            0
   Other:                           0

   ========= Pipeline Register Usage =============
   Total Number of Registers:       5641
   Max Register Usage Per Cycle:    138
   Avg Register Usage Per Cycle:    12.130992
   Avg Register Size (Bytes):       5.980606

   ========= Memory Configuration =================
   Cache Bus Ports:                 0
   Shared Cache Size:               0kB
   Local Bus Ports:                 0
   Private SPM Size:                256kB
   Private Read Ports:              0
   Private Write Ports:             0
   Private Read Bus Width:          64
   Private Write Bus Width:         64
       Memory Reads:                0
       Memory Writes:               0
   ========= Power Analysis ======================
   FU Leakage Power:                0.519269 mW 
   FU Dynamic Power:                0.154621 mW 
   FU Total Power:                  0.673890 mW 

   Registers Leakage Power:          0.005281 mW 
   Registers Dynamic Power:          0.015326 mW 
       Register Reads (Bits):        132616
       Register Writes (Bits):       133658
   Registers Total Power:            0.020607 mW

   SPM Leakage Power:               0.104100 mW
   SPM Read Dynamic Power:          1.997266 mW
   SPM Write Dynamic Power:         0.953321 mW
   SPM Total Power:                 3.054688 mW

   Cache Leakage Power:             0.000000 mW
   Cache Read Dynamic Power:        0.000000 mW
   Cache Write Dynamic Power:       0.000000 mW
   Cache Total Power:               0.000000 mW

   Accelerator Power:               0.694497 mW
   Accelerator Power (SPM):         3.749184 mW
   Accelerator Power (Cache):       0.694497 mW

   ========= Area Analysis =======================
   FU Area:                         70212.562500 um^2 (0.070213 mm^2)
   Register Area:                   429.271088 um^2 (0.000429 mm^2)
   SPM Area:                        2177.365505 um^2 (0.002177 mm^2)
   Cache Area:                      0.000000 um^2 (0.000000 mm^2)

   Accelerator Area:                70641.835938 um^2 (0.070642 mm^2)
   Accelerator Area (SPM):          72819.201442 um^2 (0.072819 mm^2)
   Accelerator Area (Cache):        70641.835938 um^2 (0.070642 mm^2)

   ========= SPM Resizing  =======================
   SPM Optimized Leakage Power:     0.004248 mW
   SPM Opt Area:                    178.524902 um^2

14814401625: system.acctest.elem_matrix0_dma: SRC:0x0000000024020020, DST:0x0000000082088780, LEN:65536
14814923750: global: Timer #0 stopped at tick 14814923750. Duration: 15469375
14814938125: global: Number of accelerators running = 5
14815060000: global: Timer #0 started at tick 14815060000
14815689375: global: Timer #2 started at tick 14815689375
14815721875: global: Timer #2 stopped at tick 14815721875. Duration: 32500
14816258750: global: Timer #2 started at tick 14816258750
14816290625: global: Timer #2 stopped at tick 14816290625. Duration: 31875
14821146625: system.acctest.elem_matrix0_dma: Transfer completed in 6.745 us
14830022375: system.acctest.elem_matrix1_dma: SRC:0x0000000024120020, DST:0x00000000828a2f80, LEN:65536
14830406250: global: Timer #0 stopped at tick 14830406250. Duration: 15346250
14830420625: global: Number of accelerators running = 5
14830543125: global: Timer #0 started at tick 14830543125
14831119375: global: Timer #2 started at tick 14831119375
14831160625: global: Timer #2 stopped at tick 14831160625. Duration: 41250
14831671875: global: Timer #2 started at tick 14831671875
14831708125: global: Timer #2 stopped at tick 14831708125. Duration: 36250
14836662375: system.acctest.elem_matrix1_dma: Transfer completed in 6.64 us
14845247375: system.acctest.elem_matrix2_dma: SRC:0x0000000024220020, DST:0x00000000830bd780, LEN:65536
14845606250: global: Timer #0 stopped at tick 14845606250. Duration: 15063125
14845620625: global: Number of accelerators running = 5
14845743125: global: Timer #0 started at tick 14845743125
14846048750: global: Timer #2 started at tick 14846048750
14846085625: global: Timer #2 stopped at tick 14846085625. Duration: 36875
14846661250: global: DAG ID = 4
14846680625: global: Node ID = 0
14846698750: global: Node deadline difference = -13843
14846760000: global: Predicted memory time / byte = 0 us/byte
14846778125: global: Predicted memory time = 0 us
14846796250: global: Predicted memory time / byte = 0 us/byte
14846814375: global: Predicted memory time = 0 us
14846832500: global: Predicted memory time / byte = 0 us/byte
14846850625: global: Predicted memory time = 0 us
14846868750: global: Predicted memory time / byte = 0 us/byte
14846886875: global: Predicted memory time = 0 us
14848281625: system.acctest.grayscale0_dma: SRC:0x0000000027004224, DST:0x0000000025000020, LEN:49152
14853887000: system.acctest.isp0_dma: SRC:0x00000000841f8780, DST:0x0000000027000020, LEN:16900
14854090000: global: Timer #0 stopped at tick 14854090000. Duration: 8346875
14854104375: global: Number of accelerators running = 6
14854225625: global: Timer #0 started at tick 14854225625
14854410000: global: Timer #2 started at tick 14854410000
14854442500: global: Timer #2 stopped at tick 14854442500. Duration: 32500
14854681250: global: Timer #2 started at tick 14854681250
14854713750: global: Timer #2 stopped at tick 14854713750. Duration: 32500
14855730375: system.acctest.elem_matrix2_dma: Transfer completed in 10.483 us
14858258000: system.acctest.isp0_dma: Transfer completed in 4.371 us
14860107625: system.acctest.grayscale0_dma: Transfer completed in 11.826 us
14867984500: system.acctest.elem_matrix3_dma: SRC:0x0000000024320020, DST:0x00000000838d7f80, LEN:65536
14868348125: global: Timer #0 stopped at tick 14868348125. Duration: 14122500
14868362500: global: Number of accelerators running = 6
14868478125: global: Timer #0 started at tick 14868478125
14868715625: global: DAG ID = 0
14868778125: global: Node ID = 0
14868849375: global: Node deadline difference = -2116
14868869375: global: Predicted memory time / byte = 0 us/byte
14868887500: global: Predicted memory time = 0 us
14868905625: global: Predicted memory time / byte = 0 us/byte
14868923750: global: Predicted memory time = 0 us
14868941875: global: Predicted memory time / byte = 0 us/byte
14868960000: global: Predicted memory time = 0 us
14868978125: global: Predicted memory time / byte = 0 us/byte
14868996250: global: Predicted memory time = 0 us
14874588500: system.acctest.elem_matrix3_dma: Transfer completed in 6.604 us
14883402375: system.acctest.elem_matrix0_dma: SRC:0x0000000082018780, DST:0x0000000024000020, LEN:65536
14883666875: global: Timer #0 stopped at tick 14883666875. Duration: 15188750
14883681250: global: Number of accelerators running = 6
14883797500: global: Timer #0 started at tick 14883797500
14883970625: global: DAG ID = 1
14883984375: global: Node ID = 0
14884003750: global: Node deadline difference = -2101
14884016250: global: Predicted memory time / byte = 0 us/byte
14884028750: global: Predicted memory time = 0 us
14884041250: global: Predicted memory time / byte = 0 us/byte
14884053750: global: Predicted memory time = 0 us
14884066250: global: Predicted memory time / byte = 0 us/byte
14884078750: global: Predicted memory time = 0 us
14884091250: global: Predicted memory time / byte = 0 us/byte
14884103750: global: Predicted memory time = 0 us
14895639375: system.acctest.elem_matrix0_dma: Transfer completed in 12.237 us
14897849500: system.acctest.elem_matrix1_dma: SRC:0x0000000082088780, DST:0x0000000024100020, LEN:65536
14898111875: global: Timer #0 stopped at tick 14898111875. Duration: 14314375
14898126250: global: Number of accelerators running = 6
14898253125: global: Timer #0 started at tick 14898253125
14898431250: global: DAG ID = 2
14898445000: global: Node ID = 0
14898464375: global: Node deadline difference = -2086
14898476875: global: Predicted memory time / byte = 0 us/byte
14898489375: global: Predicted memory time = 0 us
14898501875: global: Predicted memory time / byte = 0 us/byte
14898514375: global: Predicted memory time = 0 us
14898526875: global: Predicted memory time / byte = 0 us/byte
14898539375: global: Predicted memory time = 0 us
14898551875: global: Predicted memory time / byte = 0 us/byte
14898564375: global: Predicted memory time = 0 us
14909843500: system.acctest.elem_matrix1_dma: Transfer completed in 11.994 us
14912137375: system.acctest.elem_matrix2_dma: SRC:0x0000000082993140, DST:0x0000000024200020, LEN:65536
14912355000: global: Timer #0 stopped at tick 14912355000. Duration: 14101875
14912369375: global: Number of accelerators running = 6
14912491875: global: Timer #0 started at tick 14912491875
14913327500: global: Timer #0 stopped at tick 14913327500. Duration: 835625
14913341875: global: Number of accelerators running = 6
14913468750: global: Timer #0 started at tick 14913468750
14914601250: global: Timer #0 stopped at tick 14914601250. Duration: 1132500
14914615625: global: Number of accelerators running = 6
14914738125: global: Timer #0 started at tick 14914738125
14914916250: global: DAG ID = 3
14914930000: global: Node ID = 0
14914949375: global: Node deadline difference = -2070
14914961875: global: Predicted memory time / byte = 0 us/byte
14914974375: global: Predicted memory time = 0 us
14914986875: global: Predicted memory time / byte = 0 us/byte
14914999375: global: Predicted memory time = 0 us
14915011875: global: Predicted memory time / byte = 0 us/byte
14915024375: global: Predicted memory time = 0 us
14915036875: global: Predicted memory time / byte = 0 us/byte
14915049375: global: Predicted memory time = 0 us
14924146375: system.acctest.elem_matrix2_dma: Transfer completed in 12.009 us
********************************************************************************
system.acctest.grayscale0.compute
   ========= Performance Analysis =============
   Setup Time:                      0.016691seconds
   Simulation Time:                 435.083945seconds
   System Clock:                    1.000000GHz
   Transistor Latency:              1ns
   Runtime:                         10263 cycles
   Runtime:                         10.263000 us
   Stalls:                          1 cycles
   Executed Nodes:                  10261 cycles

********************************************************************************
   ========= Performance Analysis =================
   Setup Time:                      16691411.000000ns
   Simulation Time:                 435083944511.000000ns
   System Clock:                    1.000000GHz
   Transistor Latency:              0ns
   Runtime:                         10263 cycles
   Runtime:                         0.000001 seconds
   Stalls:                          1 cycles
       Load Only:                   0 cycles
       Store Only:                  1 cycles
       Compute Only:                0 cycles
       Compute & Store:             0 cycles
       Load & Store:                0 cycles
       Load & Compute:              0 cycles
       Load & Compute & Store:      0 cycles
   Executed Nodes:                  10261 cycles
       Load Only:                   0 cycles
       Store Only:                  1 cycles
       Compute Only:                88 cycles
       Compute & Store:             344 cycles
       Load & Store:                0 cycles
       Load & Compute:              1981 cycles
       Load & Compute & Store:      7847 cycles

   ========= Runtime FU's ========= (Max | Avg) ===
   Counter FU's:                      24 | 0.199556
   Integer Add/Sub FU's:               0 | 0.000000
   Integer Mul/Div FU's:               8 | 0.199552
   Integer Shifter FU's:               0 | 0.000000
   Integer Bitwise FU's:               1 | 0.000097
   Floating Point Float Add/Sub:      49 | 0.114264
   Floating Point Double Add/Sub:      0 | 0.000000
   Floating Point Float Mul/Div:      42 | 0.114129
   Floating Point Double Mul/Div:      0 | 0.000000
   0 Cycle Compare FU's:               9 | 0.066626
   GEP Instruction FU's:              36 | 0.177452
   Type Conversion FU's:              76 | 0.401969

   ========= Static FU's ==========================
   Counter FU's:                    0
   Integer Add/Sub FU's:            0
   Integer Mul/Div FU's:            0
   Integer Shifter FU's:            0
   Integer Bitwise FU's:            0
   Floating Point Float Add/Sub:    0
   Floating Point Double Add/Sub:   0
   Floating Point Float Mul/Div:    0
   Floating Point Double Mul/Div:   0
   0 Cycle Compare FU's:            0
   GEP Instruction FU's:            0
   Type Conversion FU's:            0
   Other:                           0

   ========= Pipeline Register Usage =============
   Total Number of Registers:       235
   Max Register Usage Per Cycle:    90
   Avg Register Usage Per Cycle:    33.924291
   Avg Register Size (Bytes):       5.841147

   ========= Memory Configuration =================
   Cache Bus Ports:                 0
   Shared Cache Size:               0kB
   Local Bus Ports:                 0
   Private SPM Size:                176kB
   Private Read Ports:              0
   Private Write Ports:             0
   Private Read Bus Width:          64
   Private Write Bus Width:         64
       Memory Reads:                0
       Memory Writes:               0
   ========= Power Analysis ======================
   FU Leakage Power:                1.178269 mW 
   FU Dynamic Power:                0.617392 mW 
   FU Total Power:                  1.795662 mW 

   Registers Leakage Power:          0.014185 mW 
   Registers Dynamic Power:          0.101057 mW 
       Register Reads (Bits):        348165
       Register Writes (Bits):       348168
   Registers Total Power:            0.115242 mW

   SPM Leakage Power:               0.089881 mW
   SPM Read Dynamic Power:          6.997296 mW
   SPM Write Dynamic Power:         2.062375 mW
   SPM Total Power:                 9.149552 mW

   Cache Leakage Power:             0.000000 mW
   Cache Read Dynamic Power:        0.000000 mW
   Cache Write Dynamic Power:       0.000000 mW
   Cache Total Power:               0.000000 mW

   Accelerator Power:               1.910904 mW
   Accelerator Power (SPM):         11.060456 mW
   Accelerator Power (Cache):       1.910904 mW

   ========= Area Analysis =======================
   FU Area:                         143348.187500 um^2 (0.143348 mm^2)
   Register Area:                   1152.968140 um^2 (0.001153 mm^2)
   SPM Area:                        3573.642862 um^2 (0.003574 mm^2)
   Cache Area:                      0.000000 um^2 (0.000000 mm^2)

   Accelerator Area:                144501.156250 um^2 (0.144501 mm^2)
   Accelerator Area (SPM):          148074.799112 um^2 (0.148075 mm^2)
   Accelerator Area (Cache):        144501.156250 um^2 (0.144501 mm^2)

   ========= SPM Resizing  =======================
   SPM Optimized Leakage Power:     0.003633 mW
   SPM Opt Area:                    364.024374 um^2

14928640875: system.acctest.elem_matrix3_dma: SRC:0x00000000828a2f80, DST:0x0000000024300020, LEN:65536
14928853125: global: Timer #0 stopped at tick 14928853125. Duration: 14115000
14928867500: global: Number of accelerators running = 6
14928983750: global: Timer #0 started at tick 14928983750
14930521250: global: Timer #0 stopped at tick 14930521250. Duration: 1537500
14930535625: global: Number of accelerators running = 6
14930651250: global: Timer #0 started at tick 14930651250
14940604875: system.acctest.elem_matrix3_dma: Transfer completed in 11.964 us
********************************************************************************
system.acctest.elem_matrix0.compute
   ========= Performance Analysis =============
   Setup Time:                      10.307280seconds
   Simulation Time:                 425.408952seconds
   System Clock:                    1.000000GHz
   Transistor Latency:              1ns
   Runtime:                         10932 cycles
   Runtime:                         10.932000 us
   Stalls:                          1 cycles
   Executed Nodes:                  10930 cycles

********************************************************************************
   ========= Performance Analysis =================
   Setup Time:                      10307279762.000000ns
   Simulation Time:                 425408951826.000000ns
   System Clock:                    1.000000GHz
   Transistor Latency:              0ns
   Runtime:                         10932 cycles
   Runtime:                         0.000001 seconds
   Stalls:                          1 cycles
       Load Only:                   0 cycles
       Store Only:                  1 cycles
       Compute Only:                0 cycles
       Compute & Store:             0 cycles
       Load & Store:                0 cycles
       Load & Compute:              0 cycles
       Load & Compute & Store:      0 cycles
   Executed Nodes:                  10930 cycles
       Load Only:                   0 cycles
       Store Only:                  4 cycles
       Compute Only:                1 cycles
       Compute & Store:             21 cycles
       Load & Store:                0 cycles
       Load & Compute:              6 cycles
       Load & Compute & Store:      10898 cycles

   ========= Runtime FU's ========= (Max | Avg) ===
   Counter FU's:                      32 | 0.046838
   Integer Add/Sub FU's:               0 | 0.000000
   Integer Mul/Div FU's:               0 | 0.000000
   Integer Shifter FU's:               0 | 0.000000
   Integer Bitwise FU's:               1 | 0.000091
   Floating Point Float Add/Sub:       0 | 0.000000
   Floating Point Double Add/Sub:      0 | 0.000000
   Floating Point Float Mul/Div:      34 | 0.044252
   Floating Point Double Mul/Div:      0 | 0.000000
   0 Cycle Compare FU's:             102 | 0.046945
   GEP Instruction FU's:              96 | 0.046835
   Type Conversion FU's:               7 | 0.006782

   ========= Static FU's ==========================
   Counter FU's:                    0
   Integer Add/Sub FU's:            0
   Integer Mul/Div FU's:            0
   Integer Shifter FU's:            0
   Integer Bitwise FU's:            0
   Floating Point Float Add/Sub:    0
   Floating Point Double Add/Sub:   0
   Floating Point Float Mul/Div:    0
   Floating Point Double Mul/Div:   0
   0 Cycle Compare FU's:            0
   GEP Instruction FU's:            0
   Type Conversion FU's:            0
   Other:                           0

   ========= Pipeline Register Usage =============
   Total Number of Registers:       5641
   Max Register Usage Per Cycle:    137
   Avg Register Usage Per Cycle:    12.130992
   Avg Register Size (Bytes):       5.980606

   ========= Memory Configuration =================
   Cache Bus Ports:                 0
   Shared Cache Size:               0kB
   Local Bus Ports:                 0
   Private SPM Size:                256kB
   Private Read Ports:              0
   Private Write Ports:             0
   Private Read Bus Width:          64
   Private Write Bus Width:         64
       Memory Reads:                0
       Memory Writes:               0
   ========= Power Analysis ======================
   FU Leakage Power:                0.045377 mW 
   FU Dynamic Power:                0.142576 mW 
   FU Total Power:                  0.187953 mW 

   Registers Leakage Power:          0.005281 mW 
   Registers Dynamic Power:          0.015326 mW 
       Register Reads (Bits):        132616
       Register Writes (Bits):       133658
   Registers Total Power:            0.020607 mW

   SPM Leakage Power:               0.104100 mW
   SPM Read Dynamic Power:          2.785289 mW
   SPM Write Dynamic Power:         2.044305 mW
   SPM Total Power:                 4.933694 mW

   Cache Leakage Power:             0.000000 mW
   Cache Read Dynamic Power:        0.000000 mW
   Cache Write Dynamic Power:       0.000000 mW
   Cache Total Power:               0.000000 mW

   Accelerator Power:               0.208559 mW
   Accelerator Power (SPM):         5.142254 mW
   Accelerator Power (Cache):       0.208559 mW

   ========= Area Analysis =======================
   FU Area:                         5472.068359 um^2 (0.005472 mm^2)
   Register Area:                   429.271088 um^2 (0.000429 mm^2)
   SPM Area:                        2177.365505 um^2 (0.002177 mm^2)
   Cache Area:                      0.000000 um^2 (0.000000 mm^2)

   Accelerator Area:                5901.339355 um^2 (0.005901 mm^2)
   Accelerator Area (SPM):          8078.704860 um^2 (0.008079 mm^2)
   Accelerator Area (Cache):        5901.339355 um^2 (0.005901 mm^2)

   ========= SPM Resizing  =======================
   SPM Optimized Leakage Power:     0.004248 mW
   SPM Opt Area:                    178.524902 um^2

14944046625: system.acctest.elem_matrix1_dma: SRC:0x0000000082038780, DST:0x0000000024110020, LEN:65536
14944259375: global: Timer #0 stopped at tick 14944259375. Duration: 13608125
14944273750: global: Number of accelerators running = 6
14944400625: global: Timer #0 started at tick 14944400625
********************************************************************************
system.acctest.isp0.compute
   ========= Performance Analysis =============
   Setup Time:                      0.510383seconds
   Simulation Time:                 1156.059400seconds
   System Clock:                    1.000000GHz
   Transistor Latency:              1ns
   Runtime:                         34882 cycles
   Runtime:                         34.882000 us
   Stalls:                          1 cycles
   Executed Nodes:                  34880 cycles

********************************************************************************
   ========= Performance Analysis =================
   Setup Time:                      510383027.000000ns
   Simulation Time:                 1156059399915.000000ns
   System Clock:                    1.000000GHz
   Transistor Latency:              0ns
   Runtime:                         34882 cycles
   Runtime:                         0.000003 seconds
   Stalls:                          1 cycles
       Load Only:                   0 cycles
       Store Only:                  1 cycles
       Compute Only:                0 cycles
       Compute & Store:             0 cycles
       Load & Store:                0 cycles
       Load & Compute:              0 cycles
       Load & Compute & Store:      0 cycles
   Executed Nodes:                  34880 cycles
       Load Only:                   0 cycles
       Store Only:                  1 cycles
       Compute Only:                3453 cycles
       Compute & Store:             19014 cycles
       Load & Store:                0 cycles
       Load & Compute:              2467 cycles
       Load & Compute & Store:      9945 cycles

   ========= Runtime FU's ========= (Max | Avg) ===
   Counter FU's:                      10 | 0.118075
   Integer Add/Sub FU's:              76 | 0.082082
   Integer Mul/Div FU's:              11 | 0.043888
   Integer Shifter FU's:              42 | 0.055974
   Integer Bitwise FU's:               4 | 0.059443
   Floating Point Float Add/Sub:      53 | 0.116839
   Floating Point Double Add/Sub:      0 | 0.000000
   Floating Point Float Mul/Div:      76 | 0.625626
   Floating Point Double Mul/Div:      0 | 0.000000
   0 Cycle Compare FU's:              85 | 0.664984
   GEP Instruction FU's:              33 | 0.117424
   Type Conversion FU's:             110 | 0.379700

   ========= Static FU's ==========================
   Counter FU's:                    0
   Integer Add/Sub FU's:            0
   Integer Mul/Div FU's:            0
   Integer Shifter FU's:            0
   Integer Bitwise FU's:            0
   Floating Point Float Add/Sub:    0
   Floating Point Double Add/Sub:   0
   Floating Point Float Mul/Div:    0
   Floating Point Double Mul/Div:   0
   0 Cycle Compare FU's:            0
   GEP Instruction FU's:            0
   Type Conversion FU's:            0
   Other:                           0

   ========= Pipeline Register Usage =============
   Total Number of Registers:       1620
   Max Register Usage Per Cycle:    151
   Avg Register Usage Per Cycle:    58.744711
   Avg Register Size (Bytes):       5.073357

   ========= Memory Configuration =================
   Cache Bus Ports:                 0
   Shared Cache Size:               0kB
   Local Bus Ports:                 0
   Private SPM Size:                112kB
   Private Read Ports:              0
   Private Write Ports:             0
   Private Read Bus Width:          64
   Private Write Bus Width:         64
       Memory Reads:                0
       Memory Writes:               0
   ========= Power Analysis ======================
   FU Leakage Power:                1.637787 mW 
   FU Dynamic Power:                9.655087 mW 
   FU Total Power:                  11.292874 mW 

   Registers Leakage Power:          0.021654 mW 
   Registers Dynamic Power:          3.085961 mW 
       Register Reads (Bits):        2049133
       Register Writes (Bits):       2049168
   Registers Total Power:            3.107615 mW

   SPM Leakage Power:               0.061081 mW
   SPM Read Dynamic Power:          15.102444 mW
   SPM Write Dynamic Power:         10.618341 mW
   SPM Total Power:                 25.781867 mW

   Cache Leakage Power:             0.000000 mW
   Cache Read Dynamic Power:        0.000000 mW
   Cache Write Dynamic Power:       0.000000 mW
   Cache Total Power:               0.000000 mW

   Accelerator Power:               14.400490 mW
   Accelerator Power (SPM):         40.182357 mW
   Accelerator Power (Cache):       14.400490 mW

   ========= Area Analysis =======================
   FU Area:                         176023.796875 um^2 (0.176024 mm^2)
   Register Area:                   1760.064941 um^2 (0.001760 mm^2)
   SPM Area:                        2165.394891 um^2 (0.002165 mm^2)
   Cache Area:                      0.000000 um^2 (0.000000 mm^2)

   Accelerator Area:                177783.859375 um^2 (0.177784 mm^2)
   Accelerator Area (SPM):          179949.254266 um^2 (0.179949 mm^2)
   Accelerator Area (Cache):        177783.859375 um^2 (0.177784 mm^2)

   ========= SPM Resizing  =======================
   SPM Optimized Leakage Power:     0.005964 mW
   SPM Opt Area:                    422.108128 um^2

14956061625: system.acctest.elem_matrix1_dma: Transfer completed in 12.015 us
14957835875: system.acctest.elem_matrix2_dma: SRC:0x0000000082018780, DST:0x0000000024210020, LEN:65536
14958049375: global: Timer #0 stopped at tick 14958049375. Duration: 13648750
14958063750: global: Number of accelerators running = 6
14958178750: global: Timer #0 started at tick 14958178750
14958361250: global: Timer #2 started at tick 14958361250
14958394375: global: Timer #2 stopped at tick 14958394375. Duration: 33125
14958483750: global: Timer #2 started at tick 14958483750
14958558125: global: Timer #2 stopped at tick 14958558125. Duration: 74375
14959030000: global: DAG ID = 4
14959043750: global: Node ID = 1
14959063750: global: Node deadline difference = -13767
14959076250: global: Predicted memory time / byte = 0 us/byte
14959088750: global: Predicted memory time = 0 us
14959101250: global: Predicted memory time / byte = 0 us/byte
14959113750: global: Predicted memory time = 0 us
14959126250: global: Predicted memory time / byte = 0 us/byte
14959138750: global: Predicted memory time = 0 us
14959151250: global: Predicted memory time / byte = 0 us/byte
14959163750: global: Predicted memory time = 0 us
14960666625: system.acctest.convolution0_dma: SRC:0x000000002500c020, DST:0x0000000022000020, LEN:65536
14962008000: system.acctest.convolution1_dma: SRC:0x000000002500c020, DST:0x0000000022100020, LEN:65536
14962261875: global: Timer #0 stopped at tick 14962261875. Duration: 4083125
14962276250: global: Number of accelerators running = 7
14962436875: global: Timer #0 started at tick 14962436875
14972202875: system.acctest.elem_matrix2_dma: Transfer completed in 14.367 us
14975710000: system.acctest.elem_matrix3_dma: SRC:0x0000000082038780, DST:0x0000000024310020, LEN:65536
14975923125: global: Timer #0 stopped at tick 14975923125. Duration: 13486250
14975937500: global: Number of accelerators running = 7
14976053125: global: Timer #0 started at tick 14976053125
14976418125: global: Timer #2 started at tick 14976418125
14976450000: global: Timer #2 stopped at tick 14976450000. Duration: 31875
14986981625: system.acctest.convolution0_dma: Transfer completed in 26.315 us
14988644000: system.acctest.convolution1_dma: Transfer completed in 26.636 us
14989511000: system.acctest.elem_matrix3_dma: Transfer completed in 13.801 us
14989673750: system.acctest.elem_matrix0_dma: SRC:0x0000000024010020, DST:0x0000000082098780, LEN:65536
14990021875: global: Timer #0 stopped at tick 14990021875. Duration: 13968750
14990036250: global: Number of accelerators running = 7
14990151875: global: Timer #0 started at tick 14990151875
14990458125: global: Timer #2 started at tick 14990458125
14990490000: global: Timer #2 stopped at tick 14990490000. Duration: 31875
14990861250: global: DAG ID = 5
14990875000: global: Node ID = 0
14990895000: global: Node deadline difference = -13699
14990907500: global: Predicted memory time / byte = 0 us/byte
14990920000: global: Predicted memory time = 0 us
14990932500: global: Predicted memory time / byte = 0 us/byte
14990945000: global: Predicted memory time = 0 us
14990957500: global: Predicted memory time / byte = 0 us/byte
14990970000: global: Predicted memory time = 0 us
14990982500: global: Predicted memory time / byte = 0 us/byte
14990995000: global: Predicted memory time = 0 us
14991904000: system.acctest.grayscale0_dma: SRC:0x0000000027010224, DST:0x0000000025000020, LEN:49152
14997014000: system.acctest.isp0_dma: SRC:0x000000008430e4c0, DST:0x0000000027000020, LEN:16900
14997217500: global: Timer #0 stopped at tick 14997217500. Duration: 7065625
14997231875: global: Number of accelerators running = 8
14997348125: global: Timer #0 started at tick 14997348125
14998825000: global: Timer #0 stopped at tick 14998825000. Duration: 1476875
14998839375: global: Number of accelerators running = 8
14998953750: global: Timer #0 started at tick 14998953750
15000410000: global: Timer #0 stopped at tick 15000410000. Duration: 1456250
15000424375: global: Number of accelerators running = 8
15000549375: global: Timer #0 started at tick 15000549375
15000799750: system.acctest.elem_matrix0_dma: Transfer completed in 11.126 us
15001828000: system.acctest.convolution0_dma: SRC:0x0000000084103100, DST:0x0000000022030020, LEN:36
15001926000: system.acctest.convolution0_dma: Transfer completed in 0.098 us
15002068125: global: Timer #0 stopped at tick 15002068125. Duration: 1518750
15002082500: global: Number of accelerators running = 8
15002214375: global: Timer #0 started at tick 15002214375
15002339000: system.acctest.isp0_dma: Transfer completed in 5.325 us
15003105000: system.acctest.convolution1_dma: SRC:0x0000000084103140, DST:0x0000000022130020, LEN:36
15003176000: system.acctest.convolution1_dma: Transfer completed in 0.071 us
15003330000: global: Timer #0 stopped at tick 15003330000. Duration: 1115625
15003344375: global: Number of accelerators running = 8
15003468750: global: Timer #0 started at tick 15003468750
15004157000: system.acctest.grayscale0_dma: Transfer completed in 12.253 us
15004805625: global: Timer #0 stopped at tick 15004805625. Duration: 1336875
15004820000: global: Number of accelerators running = 8
15004936875: global: Timer #0 started at tick 15004936875
15005109375: global: DAG ID = 0
15005123125: global: Node ID = 1
15005142500: global: Node deadline difference = -2304
15005155000: global: Predicted memory time / byte = 0 us/byte
15005167500: global: Predicted memory time = 0 us
15005180000: global: Predicted memory time / byte = 0 us/byte
15005192500: global: Predicted memory time = 0 us
15005205000: global: Predicted memory time / byte = 0 us/byte
15005217500: global: Predicted memory time = 0 us
15005230000: global: Predicted memory time / byte = 0 us/byte
15005242500: global: Predicted memory time = 0 us
********************************************************************************
system.acctest.elem_matrix1.compute
   ========= Performance Analysis =============
   Setup Time:                      11.413603seconds
   Simulation Time:                 431.693278seconds
   System Clock:                    1.000000GHz
   Transistor Latency:              1ns
   Runtime:                         10932 cycles
   Runtime:                         10.932000 us
   Stalls:                          1 cycles
   Executed Nodes:                  10930 cycles

********************************************************************************
   ========= Performance Analysis =================
   Setup Time:                      11413602989.000000ns
   Simulation Time:                 431693277643.000000ns
   System Clock:                    1.000000GHz
   Transistor Latency:              0ns
   Runtime:                         10932 cycles
   Runtime:                         0.000001 seconds
   Stalls:                          1 cycles
       Load Only:                   0 cycles
       Store Only:                  1 cycles
       Compute Only:                0 cycles
       Compute & Store:             0 cycles
       Load & Store:                0 cycles
       Load & Compute:              0 cycles
       Load & Compute & Store:      0 cycles
   Executed Nodes:                  10930 cycles
       Load Only:                   0 cycles
       Store Only:                  4 cycles
       Compute Only:                1 cycles
       Compute & Store:             21 cycles
       Load & Store:                0 cycles
       Load & Compute:              6 cycles
       Load & Compute & Store:      10898 cycles

   ========= Runtime FU's ========= (Max | Avg) ===
   Counter FU's:                      32 | 0.046838
   Integer Add/Sub FU's:               0 | 0.000000
   Integer Mul/Div FU's:               0 | 0.000000
   Integer Shifter FU's:               0 | 0.000000
   Integer Bitwise FU's:               1 | 0.000091
   Floating Point Float Add/Sub:       0 | 0.000000
   Floating Point Double Add/Sub:      0 | 0.000000
   Floating Point Float Mul/Div:      34 | 0.044252
   Floating Point Double Mul/Div:      0 | 0.000000
   0 Cycle Compare FU's:             102 | 0.046945
   GEP Instruction FU's:              96 | 0.046835
   Type Conversion FU's:               7 | 0.006782

   ========= Static FU's ==========================
   Counter FU's:                    0
   Integer Add/Sub FU's:            0
   Integer Mul/Div FU's:            0
   Integer Shifter FU's:            0
   Integer Bitwise FU's:            0
   Floating Point Float Add/Sub:    0
   Floating Point Double Add/Sub:   0
   Floating Point Float Mul/Div:    0
   Floating Point Double Mul/Div:   0
   0 Cycle Compare FU's:            0
   GEP Instruction FU's:            0
   Type Conversion FU's:            0
   Other:                           0

   ========= Pipeline Register Usage =============
   Total Number of Registers:       5641
   Max Register Usage Per Cycle:    137
   Avg Register Usage Per Cycle:    12.130992
   Avg Register Size (Bytes):       5.980606

   ========= Memory Configuration =================
   Cache Bus Ports:                 0
   Shared Cache Size:               0kB
   Local Bus Ports:                 0
   Private SPM Size:                256kB
   Private Read Ports:              0
   Private Write Ports:             0
   Private Read Bus Width:          64
   Private Write Bus Width:         64
       Memory Reads:                0
       Memory Writes:               0
   ========= Power Analysis ======================
   FU Leakage Power:                0.045377 mW 
   FU Dynamic Power:                0.142576 mW 
   FU Total Power:                  0.187953 mW 

   Registers Leakage Power:          0.005281 mW 
   Registers Dynamic Power:          0.015326 mW 
       Register Reads (Bits):        132616
       Register Writes (Bits):       133658
   Registers Total Power:            0.020607 mW

   SPM Leakage Power:               0.104100 mW
   SPM Read Dynamic Power:          2.785289 mW
   SPM Write Dynamic Power:         2.044305 mW
   SPM Total Power:                 4.933694 mW

   Cache Leakage Power:             0.000000 mW
   Cache Read Dynamic Power:        0.000000 mW
   Cache Write Dynamic Power:       0.000000 mW
   Cache Total Power:               0.000000 mW

   Accelerator Power:               0.208559 mW
   Accelerator Power (SPM):         5.142254 mW
   Accelerator Power (Cache):       0.208559 mW

   ========= Area Analysis =======================
   FU Area:                         5472.068359 um^2 (0.005472 mm^2)
   Register Area:                   429.271088 um^2 (0.000429 mm^2)
   SPM Area:                        2177.365505 um^2 (0.002177 mm^2)
   Cache Area:                      0.000000 um^2 (0.000000 mm^2)

   Accelerator Area:                5901.339355 um^2 (0.005901 mm^2)
   Accelerator Area (SPM):          8078.704860 um^2 (0.008079 mm^2)
   Accelerator Area (Cache):        5901.339355 um^2 (0.005901 mm^2)

   ========= SPM Resizing  =======================
   SPM Optimized Leakage Power:     0.004248 mW
   SPM Opt Area:                    178.524902 um^2

********************************************************************************
system.acctest.elem_matrix2.compute
   ========= Performance Analysis =============
   Setup Time:                      6.179703seconds
   Simulation Time:                 437.401749seconds
   System Clock:                    1.000000GHz
   Transistor Latency:              1ns
   Runtime:                         10932 cycles
   Runtime:                         10.932000 us
   Stalls:                          1 cycles
   Executed Nodes:                  10930 cycles

********************************************************************************
   ========= Performance Analysis =================
   Setup Time:                      6179702660.000000ns
   Simulation Time:                 437401749136.000000ns
   System Clock:                    1.000000GHz
   Transistor Latency:              0ns
   Runtime:                         10932 cycles
   Runtime:                         0.000001 seconds
   Stalls:                          1 cycles
       Load Only:                   0 cycles
       Store Only:                  1 cycles
       Compute Only:                0 cycles
       Compute & Store:             0 cycles
       Load & Store:                0 cycles
       Load & Compute:              0 cycles
       Load & Compute & Store:      0 cycles
   Executed Nodes:                  10930 cycles
       Load Only:                   0 cycles
       Store Only:                  4 cycles
       Compute Only:                1 cycles
       Compute & Store:             21 cycles
       Load & Store:                0 cycles
       Load & Compute:              6 cycles
       Load & Compute & Store:      10898 cycles

   ========= Runtime FU's ========= (Max | Avg) ===
   Counter FU's:                      32 | 0.046838
   Integer Add/Sub FU's:               0 | 0.000000
   Integer Mul/Div FU's:               0 | 0.000000
   Integer Shifter FU's:               0 | 0.000000
   Integer Bitwise FU's:               1 | 0.000091
   Floating Point Float Add/Sub:       0 | 0.000000
   Floating Point Double Add/Sub:      0 | 0.000000
   Floating Point Float Mul/Div:      34 | 0.044252
   Floating Point Double Mul/Div:      0 | 0.000000
   0 Cycle Compare FU's:             102 | 0.046945
   GEP Instruction FU's:              96 | 0.046835
   Type Conversion FU's:               7 | 0.006782

   ========= Static FU's ==========================
   Counter FU's:                    0
   Integer Add/Sub FU's:            0
   Integer Mul/Div FU's:            0
   Integer Shifter FU's:            0
   Integer Bitwise FU's:            0
   Floating Point Float Add/Sub:    0
   Floating Point Double Add/Sub:   0
   Floating Point Float Mul/Div:    0
   Floating Point Double Mul/Div:   0
   0 Cycle Compare FU's:            0
   GEP Instruction FU's:            0
   Type Conversion FU's:            0
   Other:                           0

   ========= Pipeline Register Usage =============
   Total Number of Registers:       5641
   Max Register Usage Per Cycle:    137
   Avg Register Usage Per Cycle:    12.130992
   Avg Register Size (Bytes):       5.980606

   ========= Memory Configuration =================
   Cache Bus Ports:                 0
   Shared Cache Size:               0kB
   Local Bus Ports:                 0
   Private SPM Size:                256kB
   Private Read Ports:              0
   Private Write Ports:             0
   Private Read Bus Width:          64
   Private Write Bus Width:         64
       Memory Reads:                0
       Memory Writes:               0
   ========= Power Analysis ======================
   FU Leakage Power:                0.045377 mW 
   FU Dynamic Power:                0.142576 mW 
   FU Total Power:                  0.187953 mW 

   Registers Leakage Power:          0.005281 mW 
   Registers Dynamic Power:          0.015326 mW 
       Register Reads (Bits):        132616
       Register Writes (Bits):       133658
   Registers Total Power:            0.020607 mW

   SPM Leakage Power:               0.104100 mW
   SPM Read Dynamic Power:          2.785289 mW
   SPM Write Dynamic Power:         2.044305 mW
   SPM Total Power:                 4.933694 mW

   Cache Leakage Power:             0.000000 mW
   Cache Read Dynamic Power:        0.000000 mW
   Cache Write Dynamic Power:       0.000000 mW
   Cache Total Power:               0.000000 mW

   Accelerator Power:               0.208559 mW
   Accelerator Power (SPM):         5.142254 mW
   Accelerator Power (Cache):       0.208559 mW

   ========= Area Analysis =======================
   FU Area:                         5472.068359 um^2 (0.005472 mm^2)
   Register Area:                   429.271088 um^2 (0.000429 mm^2)
   SPM Area:                        2177.365505 um^2 (0.002177 mm^2)
   Cache Area:                      0.000000 um^2 (0.000000 mm^2)

   Accelerator Area:                5901.339355 um^2 (0.005901 mm^2)
   Accelerator Area (SPM):          8078.704860 um^2 (0.008079 mm^2)
   Accelerator Area (Cache):        5901.339355 um^2 (0.005901 mm^2)

   ========= SPM Resizing  =======================
   SPM Optimized Leakage Power:     0.004248 mW
   SPM Opt Area:                    178.524902 um^2

********************************************************************************
system.acctest.elem_matrix3.compute
   ========= Performance Analysis =============
   Setup Time:                      5.794055seconds
   Simulation Time:                 350.279086seconds
   System Clock:                    1.000000GHz
   Transistor Latency:              1ns
   Runtime:                         10932 cycles
   Runtime:                         10.932000 us
   Stalls:                          1 cycles
   Executed Nodes:                  10930 cycles

********************************************************************************
   ========= Performance Analysis =================
   Setup Time:                      5794055350.000000ns
   Simulation Time:                 350279085738.000000ns
   System Clock:                    1.000000GHz
   Transistor Latency:              0ns
   Runtime:                         10932 cycles
   Runtime:                         0.000001 seconds
   Stalls:                          1 cycles
       Load Only:                   0 cycles
       Store Only:                  1 cycles
       Compute Only:                0 cycles
       Compute & Store:             0 cycles
       Load & Store:                0 cycles
       Load & Compute:              0 cycles
       Load & Compute & Store:      0 cycles
   Executed Nodes:                  10930 cycles
       Load Only:                   0 cycles
       Store Only:                  4 cycles
       Compute Only:                1 cycles
       Compute & Store:             21 cycles
       Load & Store:                0 cycles
       Load & Compute:              6 cycles
       Load & Compute & Store:      10898 cycles

   ========= Runtime FU's ========= (Max | Avg) ===
   Counter FU's:                      32 | 0.046838
   Integer Add/Sub FU's:               0 | 0.000000
   Integer Mul/Div FU's:               0 | 0.000000
   Integer Shifter FU's:               0 | 0.000000
   Integer Bitwise FU's:               1 | 0.000091
   Floating Point Float Add/Sub:       0 | 0.000000
   Floating Point Double Add/Sub:      0 | 0.000000
   Floating Point Float Mul/Div:      34 | 0.044252
   Floating Point Double Mul/Div:      0 | 0.000000
   0 Cycle Compare FU's:             102 | 0.046945
   GEP Instruction FU's:              96 | 0.046835
   Type Conversion FU's:               7 | 0.006782

   ========= Static FU's ==========================
   Counter FU's:                    0
   Integer Add/Sub FU's:            0
   Integer Mul/Div FU's:            0
   Integer Shifter FU's:            0
   Integer Bitwise FU's:            0
   Floating Point Float Add/Sub:    0
   Floating Point Double Add/Sub:   0
   Floating Point Float Mul/Div:    0
   Floating Point Double Mul/Div:   0
   0 Cycle Compare FU's:            0
   GEP Instruction FU's:            0
   Type Conversion FU's:            0
   Other:                           0

   ========= Pipeline Register Usage =============
   Total Number of Registers:       5641
   Max Register Usage Per Cycle:    137
   Avg Register Usage Per Cycle:    12.130992
   Avg Register Size (Bytes):       5.980606

   ========= Memory Configuration =================
   Cache Bus Ports:                 0
   Shared Cache Size:               0kB
   Local Bus Ports:                 0
   Private SPM Size:                256kB
   Private Read Ports:              0
   Private Write Ports:             0
   Private Read Bus Width:          64
   Private Write Bus Width:         64
       Memory Reads:                0
       Memory Writes:               0
   ========= Power Analysis ======================
   FU Leakage Power:                0.045377 mW 
   FU Dynamic Power:                0.142576 mW 
   FU Total Power:                  0.187953 mW 

   Registers Leakage Power:          0.005281 mW 
   Registers Dynamic Power:          0.015326 mW 
       Register Reads (Bits):        132616
       Register Writes (Bits):       133658
   Registers Total Power:            0.020607 mW

   SPM Leakage Power:               0.104100 mW
   SPM Read Dynamic Power:          2.785289 mW
   SPM Write Dynamic Power:         2.044305 mW
   SPM Total Power:                 4.933694 mW

   Cache Leakage Power:             0.000000 mW
   Cache Read Dynamic Power:        0.000000 mW
   Cache Write Dynamic Power:       0.000000 mW
   Cache Total Power:               0.000000 mW

   Accelerator Power:               0.208559 mW
   Accelerator Power (SPM):         5.142254 mW
   Accelerator Power (Cache):       0.208559 mW

   ========= Area Analysis =======================
   FU Area:                         5472.068359 um^2 (0.005472 mm^2)
   Register Area:                   429.271088 um^2 (0.000429 mm^2)
   SPM Area:                        2177.365505 um^2 (0.002177 mm^2)
   Cache Area:                      0.000000 um^2 (0.000000 mm^2)

   Accelerator Area:                5901.339355 um^2 (0.005901 mm^2)
   Accelerator Area (SPM):          8078.704860 um^2 (0.008079 mm^2)
   Accelerator Area (Cache):        5901.339355 um^2 (0.005901 mm^2)

   ========= SPM Resizing  =======================
   SPM Optimized Leakage Power:     0.004248 mW
   SPM Opt Area:                    178.524902 um^2

15018705875: system.acctest.elem_matrix0_dma: SRC:0x00000000831ad940, DST:0x0000000024000020, LEN:65536
15018915625: global: Timer #0 stopped at tick 15018915625. Duration: 13978750
15018926875: global: Number of accelerators running = 8
15019045000: global: Timer #0 started at tick 15019045000
15020375000: global: Timer #0 stopped at tick 15020375000. Duration: 1330000
15020389375: global: Number of accelerators running = 8
15020506250: global: Timer #0 started at tick 15020506250
15021320000: global: Timer #0 stopped at tick 15021320000. Duration: 813750
15021334375: global: Number of accelerators running = 8
15021451875: global: Timer #0 started at tick 15021451875
15022758125: global: Timer #0 stopped at tick 15022758125. Duration: 1306250
15022772500: global: Number of accelerators running = 8
15022888750: global: Timer #0 started at tick 15022888750
15023568125: global: Timer #0 stopped at tick 15023568125. Duration: 679375
15023582500: global: Number of accelerators running = 8
15023698125: global: Timer #0 started at tick 15023698125
15024046250: global: Timer #2 started at tick 15024046250
15024078125: global: Timer #2 stopped at tick 15024078125. Duration: 31875
15030703875: system.acctest.elem_matrix0_dma: Transfer completed in 11.998 us
********************************************************************************
system.acctest.grayscale0.compute
   ========= Performance Analysis =============
   Setup Time:                      0.015633seconds
   Simulation Time:                 428.771428seconds
   System Clock:                    1.000000GHz
   Transistor Latency:              1ns
   Runtime:                         10263 cycles
   Runtime:                         10.263000 us
   Stalls:                          1 cycles
   Executed Nodes:                  10261 cycles

********************************************************************************
   ========= Performance Analysis =================
   Setup Time:                      15632955.000000ns
[...]
   Type Conversion FU's:            0
   Other:                           0

   ========= Pipeline Register Usage =============
   Total Number of Registers:       5641
   Max Register Usage Per Cycle:    138
   Avg Register Usage Per Cycle:    12.130992
   Avg Register Size (Bytes):       5.980606

   ========= Memory Configuration =================
   Cache Bus Ports:                 0
   Shared Cache Size:               0kB
   Local Bus Ports:                 0
   Private SPM Size:                256kB
   Private Read Ports:              0
   Private Write Ports:             0
   Private Read Bus Width:          64
   Private Write Bus Width:         64
       Memory Reads:                0
       Memory Writes:               0
   ========= Power Analysis ======================
   FU Leakage Power:                0.519269 mW 
   FU Dynamic Power:                0.154621 mW 
   FU Total Power:                  0.673890 mW 

   Registers Leakage Power:          0.005281 mW 
   Registers Dynamic Power:          0.015326 mW 
       Register Reads (Bits):        132616
       Register Writes (Bits):       133658
   Registers Total Power:            0.020607 mW

   SPM Leakage Power:               0.104100 mW
   SPM Read Dynamic Power:          23.400093 mW
   SPM Write Dynamic Power:         19.325354 mW
   SPM Total Power:                 42.829547 mW

   Cache Leakage Power:             0.000000 mW
   Cache Read Dynamic Power:        0.000000 mW
   Cache Write Dynamic Power:       0.000000 mW
   Cache Total Power:               0.000000 mW

   Accelerator Power:               0.694497 mW
   Accelerator Power (SPM):         43.524044 mW
   Accelerator Power (Cache):       0.694497 mW

   ========= Area Analysis =======================
   FU Area:                         70212.562500 um^2 (0.070213 mm^2)
   Register Area:                   429.271088 um^2 (0.000429 mm^2)
   SPM Area:                        2177.365505 um^2 (0.002177 mm^2)
   Cache Area:                      0.000000 um^2 (0.000000 mm^2)

   Accelerator Area:                70641.835938 um^2 (0.070642 mm^2)
   Accelerator Area (SPM):          72819.201442 um^2 (0.072819 mm^2)
   Accelerator Area (Cache):        70641.835938 um^2 (0.070642 mm^2)

   ========= SPM Resizing  =======================
   SPM Optimized Leakage Power:     0.004248 mW
   SPM Opt Area:                    178.524902 um^2

32691160875: system.acctest.elem_matrix3_dma: SRC:0x0000000082ffc280, DST:0x0000000024300020, LEN:65536
32691365625: global: Timer #0 stopped at tick 32691365625. Duration: 14260625
32691379375: global: Number of accelerators running = 4
32691496250: global: Timer #0 started at tick 32691496250
32703150875: system.acctest.elem_matrix3_dma: Transfer completed in 11.99 us
32704924500: system.acctest.elem_matrix0_dma: SRC:0x0000000024010020, DST:0x0000000082881a80, LEN:65536
32705287500: global: Timer #0 stopped at tick 32705287500. Duration: 13791250
32705301875: global: Number of accelerators running = 4
32705415000: global: Timer #0 started at tick 32705415000
32705730000: global: Timer #2 started at tick 32705730000
32705761875: global: Timer #2 stopped at tick 32705761875. Duration: 31875
32706138750: global: DAG ID = 3
32706152500: global: Node ID = 118
32706172500: global: Node deadline difference = 11100
32706185000: global: Predicted memory time / byte = 0 us/byte
32706197500: global: Predicted memory time = 0 us
32706210000: global: Predicted memory time / byte = 0 us/byte
32706222500: global: Predicted memory time = 0 us
32706235000: global: Predicted memory time / byte = 0 us/byte
32706247500: global: Predicted memory time = 0 us
32706260000: global: Predicted memory time / byte = 0 us/byte
32706272500: global: Predicted memory time = 0 us
32711700500: system.acctest.elem_matrix0_dma: Transfer completed in 6.776 us
32719979500: system.acctest.elem_matrix2_dma: SRC:0x0000000084031280, DST:0x0000000024200020, LEN:65536
32720194375: global: Timer #0 stopped at tick 32720194375. Duration: 14779375
32720208750: global: Number of accelerators running = 4
32720326250: global: Timer #0 started at tick 32720326250
32731967500: system.acctest.elem_matrix2_dma: Transfer completed in 11.988 us
32733823750: system.acctest.elem_matrix1_dma: SRC:0x0000000024110020, DST:0x00000000838b6a80, LEN:65536
32734176875: global: Timer #0 stopped at tick 32734176875. Duration: 13850625
32734191250: global: Number of accelerators running = 4
32734313750: global: Timer #0 started at tick 32734313750
32735716250: global: Timer #0 stopped at tick 32735716250. Duration: 1402500
32735730625: global: Number of accelerators running = 4
32735846875: global: Timer #0 started at tick 32735846875
32736031250: global: DAG ID = 0
32736045000: global: Node ID = 119
32736069375: global: DAG execution time = 18073
32736082500: global: DAG deadline difference = 11073
32736100625: global: Node deadline difference = 11073
32736113125: global: Predicted memory time / byte = 0 us/byte
32736125625: global: Predicted memory time = 0 us
32736138125: global: Predicted memory time / byte = 0 us/byte
32736150625: global: Predicted memory time = 0 us
32736163125: global: Predicted memory time / byte = 0 us/byte
32736175625: global: Predicted memory time = 0 us
32736188125: global: Predicted memory time / byte = 0 us/byte
32736200625: global: Predicted memory time = 0 us
32736310625: global: Timer #0 stopped at tick 32736310625. Duration: 463750
32736325000: global: Number of accelerators running = 3
32736446250: global: Timer #0 started at tick 32736446250
32737816250: global: Timer #0 stopped at tick 32737816250. Duration: 1370000
32737830625: global: Number of accelerators running = 3
32740121750: system.acctest.elem_matrix1_dma: Transfer completed in 6.298 us
32740195625: global: Timer #0 started at tick 32740195625
32740371250: global: DAG ID = 2
32740385000: global: Node ID = 119
32740409375: global: DAG execution time = 18077
32740422500: global: DAG deadline difference = 11077
32740440625: global: Node deadline difference = 11077
32740453125: global: Predicted memory time / byte = 0 us/byte
32740465625: global: Predicted memory time = 0 us
32740478125: global: Predicted memory time / byte = 0 us/byte
32740490625: global: Predicted memory time = 0 us
32740503125: global: Predicted memory time / byte = 0 us/byte
32740515625: global: Predicted memory time = 0 us
32740528125: global: Predicted memory time / byte = 0 us/byte
32740540625: global: Predicted memory time = 0 us
32740635000: global: Timer #0 stopped at tick 32740635000. Duration: 439375
32740649375: global: Number of accelerators running = 2
********************************************************************************
system.acctest.elem_matrix3.compute
   ========= Performance Analysis =============
   Setup Time:                      8.168504seconds
   Simulation Time:                 248.507485seconds
   System Clock:                    1.000000GHz
   Transistor Latency:              1ns
   Runtime:                         10932 cycles
   Runtime:                         10.932000 us
   Stalls:                          0 cycles
   Executed Nodes:                  10931 cycles

********************************************************************************
   ========= Performance Analysis =================
   Setup Time:                      8168503683.000001ns
   Simulation Time:                 248507484916.000000ns
   System Clock:                    1.000000GHz
   Transistor Latency:              0ns
   Runtime:                         10932 cycles
   Runtime:                         0.000001 seconds
   Stalls:                          0 cycles
       Load Only:                   0 cycles
       Store Only:                  0 cycles
       Compute Only:                0 cycles
       Compute & Store:             0 cycles
       Load & Store:                0 cycles
       Load & Compute:              0 cycles
       Load & Compute & Store:      0 cycles
   Executed Nodes:                  10931 cycles
       Load Only:                   0 cycles
       Store Only:                  5 cycles
       Compute Only:                1 cycles
       Compute & Store:             21 cycles
       Load & Store:                0 cycles
       Load & Compute:              7 cycles
       Load & Compute & Store:      10897 cycles

   ========= Runtime FU's ========= (Max | Avg) ===
   Counter FU's:                      32 | 0.046838
   Integer Add/Sub FU's:               0 | 0.000000
   Integer Mul/Div FU's:               0 | 0.000000
   Integer Shifter FU's:               0 | 0.000000
   Integer Bitwise FU's:               1 | 0.000091
   Floating Point Float Add/Sub:      34 | 0.044252
   Floating Point Double Add/Sub:      0 | 0.000000
   Floating Point Float Mul/Div:       0 | 0.000000
   Floating Point Double Mul/Div:      0 | 0.000000
   0 Cycle Compare FU's:             102 | 0.046974
   GEP Instruction FU's:              96 | 0.046835
   Type Conversion FU's:               7 | 0.006782

   ========= Static FU's ==========================
   Counter FU's:                    0
   Integer Add/Sub FU's:            0
   Integer Mul/Div FU's:            0
   Integer Shifter FU's:            0
   Integer Bitwise FU's:            0
   Floating Point Float Add/Sub:    0
   Floating Point Double Add/Sub:   0
   Floating Point Float Mul/Div:    0
   Floating Point Double Mul/Div:   0
   0 Cycle Compare FU's:            0
   GEP Instruction FU's:            0
   Type Conversion FU's:            0
   Other:                           0

   ========= Pipeline Register Usage =============
   Total Number of Registers:       5641
   Max Register Usage Per Cycle:    138
   Avg Register Usage Per Cycle:    12.130992
   Avg Register Size (Bytes):       5.980606

   ========= Memory Configuration =================
   Cache Bus Ports:                 0
   Shared Cache Size:               0kB
   Local Bus Ports:                 0
   Private SPM Size:                256kB
   Private Read Ports:              0
   Private Write Ports:             0
   Private Read Bus Width:          64
   Private Write Bus Width:         64
       Memory Reads:                0
       Memory Writes:               0
   ========= Power Analysis ======================
   FU Leakage Power:                0.519269 mW 
   FU Dynamic Power:                0.154621 mW 
   FU Total Power:                  0.673890 mW 

   Registers Leakage Power:          0.005281 mW 
   Registers Dynamic Power:          0.015326 mW 
       Register Reads (Bits):        132616
       Register Writes (Bits):       133658
   Registers Total Power:            0.020607 mW

   SPM Leakage Power:               0.104100 mW
   SPM Read Dynamic Power:          23.475086 mW
   SPM Write Dynamic Power:         19.436331 mW
   SPM Total Power:                 43.015517 mW

   Cache Leakage Power:             0.000000 mW
   Cache Read Dynamic Power:        0.000000 mW
   Cache Write Dynamic Power:       0.000000 mW
   Cache Total Power:               0.000000 mW

   Accelerator Power:               0.694497 mW
   Accelerator Power (SPM):         43.710014 mW
   Accelerator Power (Cache):       0.694497 mW

   ========= Area Analysis =======================
   FU Area:                         70212.562500 um^2 (0.070213 mm^2)
   Register Area:                   429.271088 um^2 (0.000429 mm^2)
   SPM Area:                        2177.365505 um^2 (0.002177 mm^2)
   Cache Area:                      0.000000 um^2 (0.000000 mm^2)

   Accelerator Area:                70641.835938 um^2 (0.070642 mm^2)
   Accelerator Area (SPM):          72819.201442 um^2 (0.072819 mm^2)
   Accelerator Area (Cache):        70641.835938 um^2 (0.070642 mm^2)

   ========= SPM Resizing  =======================
   SPM Optimized Leakage Power:     0.004248 mW
   SPM Opt Area:                    178.524902 um^2

32746506875: global: Timer #0 started at tick 32746506875
********************************************************************************
system.acctest.elem_matrix2.compute
   ========= Performance Analysis =============
   Setup Time:                      5.745726seconds
   Simulation Time:                 226.263058seconds
   System Clock:                    1.000000GHz
   Transistor Latency:              1ns
   Runtime:                         10932 cycles
   Runtime:                         10.932000 us
   Stalls:                          0 cycles
   Executed Nodes:                  10931 cycles

********************************************************************************
   ========= Performance Analysis =================
   Setup Time:                      5745725811.000000ns
   Simulation Time:                 226263057671.000000ns
   System Clock:                    1.000000GHz
   Transistor Latency:              0ns
   Runtime:                         10932 cycles
   Runtime:                         0.000001 seconds
   Stalls:                          0 cycles
       Load Only:                   0 cycles
       Store Only:                  0 cycles
       Compute Only:                0 cycles
       Compute & Store:             0 cycles
       Load & Store:                0 cycles
       Load & Compute:              0 cycles
       Load & Compute & Store:      0 cycles
   Executed Nodes:                  10931 cycles
       Load Only:                   0 cycles
       Store Only:                  5 cycles
       Compute Only:                1 cycles
       Compute & Store:             21 cycles
       Load & Store:                0 cycles
       Load & Compute:              7 cycles
       Load & Compute & Store:      10897 cycles

   ========= Runtime FU's ========= (Max | Avg) ===
   Counter FU's:                      32 | 0.046838
   Integer Add/Sub FU's:               0 | 0.000000
   Integer Mul/Div FU's:               0 | 0.000000
   Integer Shifter FU's:               0 | 0.000000
   Integer Bitwise FU's:               1 | 0.000091
   Floating Point Float Add/Sub:      34 | 0.044252
   Floating Point Double Add/Sub:      0 | 0.000000
   Floating Point Float Mul/Div:       0 | 0.000000
   Floating Point Double Mul/Div:      0 | 0.000000
   0 Cycle Compare FU's:             102 | 0.046974
   GEP Instruction FU's:              96 | 0.046835
   Type Conversion FU's:               7 | 0.006782

   ========= Static FU's ==========================
   Counter FU's:                    0
   Integer Add/Sub FU's:            0
   Integer Mul/Div FU's:            0
   Integer Shifter FU's:            0
   Integer Bitwise FU's:            0
   Floating Point Float Add/Sub:    0
   Floating Point Double Add/Sub:   0
   Floating Point Float Mul/Div:    0
   Floating Point Double Mul/Div:   0
   0 Cycle Compare FU's:            0
   GEP Instruction FU's:            0
   Type Conversion FU's:            0
   Other:                           0

   ========= Pipeline Register Usage =============
   Total Number of Registers:       5641
   Max Register Usage Per Cycle:    138
   Avg Register Usage Per Cycle:    12.130992
   Avg Register Size (Bytes):       5.980606

   ========= Memory Configuration =================
   Cache Bus Ports:                 0
   Shared Cache Size:               0kB
   Local Bus Ports:                 0
   Private SPM Size:                256kB
   Private Read Ports:              0
   Private Write Ports:             0
   Private Read Bus Width:          64
   Private Write Bus Width:         64
       Memory Reads:                0
       Memory Writes:               0
   ========= Power Analysis ======================
   FU Leakage Power:                0.519269 mW 
   FU Dynamic Power:                0.154621 mW 
   FU Total Power:                  0.673890 mW 

   Registers Leakage Power:          0.005281 mW 
   Registers Dynamic Power:          0.015326 mW 
       Register Reads (Bits):        132616
       Register Writes (Bits):       133658
   Registers Total Power:            0.020607 mW

   SPM Leakage Power:               0.104100 mW
   SPM Read Dynamic Power:          23.700067 mW
   SPM Write Dynamic Power:         19.436331 mW
   SPM Total Power:                 43.240499 mW

   Cache Leakage Power:             0.000000 mW
   Cache Read Dynamic Power:        0.000000 mW
   Cache Write Dynamic Power:       0.000000 mW
   Cache Total Power:               0.000000 mW

   Accelerator Power:               0.694497 mW
   Accelerator Power (SPM):         43.934996 mW
   Accelerator Power (Cache):       0.694497 mW

   ========= Area Analysis =======================
   FU Area:                         70212.562500 um^2 (0.070213 mm^2)
   Register Area:                   429.271088 um^2 (0.000429 mm^2)
   SPM Area:                        2177.365505 um^2 (0.002177 mm^2)
   Cache Area:                      0.000000 um^2 (0.000000 mm^2)

   Accelerator Area:                70641.835938 um^2 (0.070642 mm^2)
   Accelerator Area (SPM):          72819.201442 um^2 (0.072819 mm^2)
   Accelerator Area (Cache):        70641.835938 um^2 (0.070642 mm^2)

   ========= SPM Resizing  =======================
   SPM Optimized Leakage Power:     0.004248 mW
   SPM Opt Area:                    178.524902 um^2

32759810875: system.acctest.elem_matrix3_dma: SRC:0x0000000024310020, DST:0x000000008309c280, LEN:65536
32760154375: global: Timer #0 stopped at tick 32760154375. Duration: 13647500
32760168750: global: Number of accelerators running = 2
32760275625: global: Timer #0 started at tick 32760275625
32766674875: system.acctest.elem_matrix3_dma: Transfer completed in 6.864 us
32774059500: system.acctest.elem_matrix2_dma: SRC:0x0000000024210020, DST:0x00000000840d1280, LEN:65536
32774403125: global: Timer #0 stopped at tick 32774403125. Duration: 14127500
32774417500: global: Number of accelerators running = 2
32774533750: global: Timer #0 started at tick 32774533750
32774719375: global: DAG ID = 1
32774733125: global: Node ID = 119
32774751875: global: DAG execution time = 18111
32774765000: global: DAG deadline difference = 11111
32774783125: global: Node deadline difference = 11111
32774795625: global: Predicted memory time / byte = 0 us/byte
32774808125: global: Predicted memory time = 0 us
32774820625: global: Predicted memory time / byte = 0 us/byte
32774833125: global: Predicted memory time = 0 us
32774845625: global: Predicted memory time / byte = 0 us/byte
32774858125: global: Predicted memory time = 0 us
32774870625: global: Predicted memory time / byte = 0 us/byte
32774883125: global: Predicted memory time = 0 us
32774977500: global: Timer #0 stopped at tick 32774977500. Duration: 443750
32774991875: global: Number of accelerators running = 1
32780381500: system.acctest.elem_matrix2_dma: Transfer completed in 6.322 us
32780466250: global: Timer #0 started at tick 32780466250
32780646250: global: DAG ID = 3
32780660000: global: Node ID = 119
32780678750: global: DAG execution time = 18117
32780691875: global: DAG deadline difference = 11117
32780710000: global: Node deadline difference = 11117
32780722500: global: Predicted memory time / byte = 0 us/byte
32780735000: global: Predicted memory time = 0 us
32780747500: global: Predicted memory time / byte = 0 us/byte
32780760000: global: Predicted memory time = 0 us
32780772500: global: Predicted memory time / byte = 0 us/byte
32780785000: global: Predicted memory time = 0 us
32780797500: global: Predicted memory time / byte = 0 us/byte
32780810000: global: Predicted memory time = 0 us
32780904375: global: Timer #0 stopped at tick 32780904375. Duration: 438125
32780918750: global: Number of accelerators running = 0
32780995625: global: Number of forwards = 163
32781130000: global: Number of colocations = 155
32781149375: global: Number of DAG deadlines met = 4
32781169375: global: Number of node deadlines met = 142
32781208125: global: Total predicted compute time = 0 us
Exiting @ tick 32781448750 because m5_exit instruction encountered
