
---------- Begin Simulation Statistics ----------
final_tick                                10048027500                       # Number of ticks from beginning of simulation (restored from checkpoints and never reset)
host_inst_rate                                     87                       # Simulator instruction rate (inst/s)
host_mem_usage                                6035176                       # Number of bytes of host memory used
host_op_rate                                       89                       # Simulator op (including micro ops) rate (op/s)
host_seconds                                  3587.45                       # Real time elapsed on the host
host_tick_rate                                2795061                       # Simulator tick rate (ticks/s)
sim_freq                                 1000000000000                       # Frequency of simulated ticks
sim_insts                                      311283                       # Number of instructions simulated
sim_ops                                        318397                       # Number of ops (including micro ops) simulated
sim_seconds                                  0.010027                       # Number of seconds simulated
sim_ticks                                 10027128125                       # Number of ticks simulated
system.acctest.coherency_bus.snoop_filter.hit_multi_requests            0                       # Number of requests hitting in the snoop filter with multiple (>1) holders of the requested data.
system.acctest.coherency_bus.snoop_filter.hit_multi_snoops            0                       # Number of snoops hitting in the snoop filter with multiple (>1) holders of the requested data.
system.acctest.coherency_bus.snoop_filter.hit_single_requests            0                       # Number of requests hitting in the snoop filter with a single holder of the requested data.
system.acctest.coherency_bus.snoop_filter.hit_single_snoops            0                       # Number of snoops hitting in the snoop filter with a single holder of the requested data.
system.acctest.coherency_bus.snoop_filter.tot_requests            0                       # Total number of requests made to the snoop filter.
system.acctest.coherency_bus.snoop_filter.tot_snoops            0                       # Total number of snoops made to the snoop filter.
system.cf0.dma_read_bytes                           0                       # Number of bytes transfered via DMA reads (not PRD).
system.cf0.dma_read_full_pages                      0                       # Number of full page size DMA reads (not PRD).
system.cf0.dma_read_txs                             0                       # Number of DMA read transactions (not PRD).
system.cf0.dma_write_bytes                          0                       # Number of bytes transfered via DMA writes.
system.cf0.dma_write_full_pages                     0                       # Number of full page size DMA writes.
system.cf0.dma_write_txs                            0                       # Number of DMA write transactions.
system.cpu.branchPred.BTBCorrect                    0                       # Number of correct BTB predictions (this stat may not work properly.
system.cpu.branchPred.BTBHitPct             92.055329                       # BTB Hit Percentage
system.cpu.branchPred.BTBHits                   41528                       # Number of BTB hits
system.cpu.branchPred.BTBLookups                45112                       # Number of BTB lookups
system.cpu.branchPred.RASInCorrect                169                       # Number of incorrect RAS predictions.
system.cpu.branchPred.condIncorrect              1922                       # Number of conditional branches incorrect
system.cpu.branchPred.condPredicted             44999                       # Number of conditional branches predicted
system.cpu.branchPred.indirectHits                527                       # Number of indirect target hits.
system.cpu.branchPred.indirectLookups             893                       # Number of indirect predictor lookups.
system.cpu.branchPred.indirectMisses              366                       # Number of indirect misses.
system.cpu.branchPred.lookups                   52976                       # Number of BP lookups
system.cpu.branchPred.usedRAS                    2770                       # Number of times the RAS was used to get a target.
system.cpu.branchPredindirectMispredicted          311                       # Number of mispredicted indirect branches.
system.cpu.committedInsts                      303613                       # Number of instructions committed
system.cpu.committedOps                        309719                       # Number of ops (including micro ops) committed
system.cpu.cpi                               3.112604                       # CPI: cycles per instruction
system.cpu.discardedOps                          4984                       # Number of ops (including micro ops) which were discarded before commit
system.cpu.dtb.accesses                             0                       # DTB accesses
system.cpu.dtb.align_faults                         0                       # Number of TLB faults due to alignment restrictions
system.cpu.dtb.domain_faults                        0                       # Number of TLB faults due to domain restrictions
system.cpu.dtb.flush_entries                        0                       # Number of entries that have been flushed from TLB
system.cpu.dtb.flush_tlb                            0                       # Number of times complete TLB was flushed
system.cpu.dtb.flush_tlb_asid                       0                       # Number of times TLB was flushed by ASID
system.cpu.dtb.flush_tlb_mva                        0                       # Number of times TLB was flushed by MVA
system.cpu.dtb.flush_tlb_mva_asid                   0                       # Number of times TLB was flushed by MVA & ASID
system.cpu.dtb.hits                                 0                       # DTB hits
system.cpu.dtb.inst_accesses                        0                       # ITB inst accesses
system.cpu.dtb.inst_hits                            0                       # ITB inst hits
system.cpu.dtb.inst_misses                          0                       # ITB inst misses
system.cpu.dtb.misses                               0                       # DTB misses
system.cpu.dtb.perms_faults                         0                       # Number of TLB faults due to permissions restrictions
system.cpu.dtb.prefetch_faults                      0                       # Number of TLB faults due to prefetch
system.cpu.dtb.read_accesses                        0                       # DTB read accesses
system.cpu.dtb.read_hits                            0                       # DTB read hits
system.cpu.dtb.read_misses                          0                       # DTB read misses
system.cpu.dtb.stage2_mmu.stage2_tlb.accesses            0                       # DTB accesses
system.cpu.dtb.stage2_mmu.stage2_tlb.align_faults            0                       # Number of TLB faults due to alignment restrictions
system.cpu.dtb.stage2_mmu.stage2_tlb.domain_faults            0                       # Number of TLB faults due to domain restrictions
system.cpu.dtb.stage2_mmu.stage2_tlb.flush_entries            0                       # Number of entries that have been flushed from TLB
system.cpu.dtb.stage2_mmu.stage2_tlb.flush_tlb            0                       # Number of times complete TLB was flushed
system.cpu.dtb.stage2_mmu.stage2_tlb.flush_tlb_asid            0                       # Number of times TLB was flushed by ASID
system.cpu.dtb.stage2_mmu.stage2_tlb.flush_tlb_mva            0                       # Number of times TLB was flushed by MVA
system.cpu.dtb.stage2_mmu.stage2_tlb.flush_tlb_mva_asid            0                       # Number of times TLB was flushed by MVA & ASID
system.cpu.dtb.stage2_mmu.stage2_tlb.hits            0                       # DTB hits
system.cpu.dtb.stage2_mmu.stage2_tlb.inst_accesses            0                       # ITB inst accesses
system.cpu.dtb.stage2_mmu.stage2_tlb.inst_hits            0                       # ITB inst hits
system.cpu.dtb.stage2_mmu.stage2_tlb.inst_misses            0                       # ITB inst misses
system.cpu.dtb.stage2_mmu.stage2_tlb.misses            0                       # DTB misses
system.cpu.dtb.stage2_mmu.stage2_tlb.perms_faults            0                       # Number of TLB faults due to permissions restrictions
system.cpu.dtb.stage2_mmu.stage2_tlb.prefetch_faults            0                       # Number of TLB faults due to prefetch
system.cpu.dtb.stage2_mmu.stage2_tlb.read_accesses            0                       # DTB read accesses
system.cpu.dtb.stage2_mmu.stage2_tlb.read_hits            0                       # DTB read hits
system.cpu.dtb.stage2_mmu.stage2_tlb.read_misses            0                       # DTB read misses
system.cpu.dtb.stage2_mmu.stage2_tlb.walker.walkRequestOrigin_Requested::Data            0                       # Table walker requests started/completed, data/inst
system.cpu.dtb.stage2_mmu.stage2_tlb.walker.walkRequestOrigin_Requested::Inst            0                       # Table walker requests started/completed, data/inst
system.cpu.dtb.stage2_mmu.stage2_tlb.walker.walkRequestOrigin_Requested::total            0                       # Table walker requests started/completed, data/inst
system.cpu.dtb.stage2_mmu.stage2_tlb.walker.walkRequestOrigin_Completed::Data            0                       # Table walker requests started/completed, data/inst
system.cpu.dtb.stage2_mmu.stage2_tlb.walker.walkRequestOrigin_Completed::Inst            0                       # Table walker requests started/completed, data/inst
system.cpu.dtb.stage2_mmu.stage2_tlb.walker.walkRequestOrigin_Completed::total            0                       # Table walker requests started/completed, data/inst
system.cpu.dtb.stage2_mmu.stage2_tlb.walker.walkRequestOrigin::total            0                       # Table walker requests started/completed, data/inst
system.cpu.dtb.stage2_mmu.stage2_tlb.walker.walks            0                       # Table walker walks requested
system.cpu.dtb.stage2_mmu.stage2_tlb.write_accesses            0                       # DTB write accesses
system.cpu.dtb.stage2_mmu.stage2_tlb.write_hits            0                       # DTB write hits
system.cpu.dtb.stage2_mmu.stage2_tlb.write_misses            0                       # DTB write misses
system.cpu.dtb.walker.walkRequestOrigin_Requested::Data            0                       # Table walker requests started/completed, data/inst
system.cpu.dtb.walker.walkRequestOrigin_Requested::Inst            0                       # Table walker requests started/completed, data/inst
system.cpu.dtb.walker.walkRequestOrigin_Requested::total            0                       # Table walker requests started/completed, data/inst
system.cpu.dtb.walker.walkRequestOrigin_Completed::Data            0                       # Table walker requests started/completed, data/inst
system.cpu.dtb.walker.walkRequestOrigin_Completed::Inst            0                       # Table walker requests started/completed, data/inst
system.cpu.dtb.walker.walkRequestOrigin_Completed::total            0                       # Table walker requests started/completed, data/inst
system.cpu.dtb.walker.walkRequestOrigin::total            0                       # Table walker requests started/completed, data/inst
system.cpu.dtb.walker.walks                         0                       # Table walker walks requested
system.cpu.dtb.write_accesses                       0                       # DTB write accesses
system.cpu.dtb.write_hits                           0                       # DTB write hits
system.cpu.dtb.write_misses                         0                       # DTB write misses
system.cpu.fetch2.amo_instructions                  0                       # Number of memory atomic instructions successfully decoded
system.cpu.fetch2.fp_instructions                   0                       # Number of floating point instructions successfully decoded
system.cpu.fetch2.int_instructions             180839                       # Number of integer instructions successfully decoded
system.cpu.fetch2.load_instructions             20367                       # Number of memory load instructions successfully decoded
system.cpu.fetch2.store_instructions            77913                       # Number of memory store instructions successfully decoded
system.cpu.fetch2.vec_instructions                  0                       # Number of SIMD instructions successfully decoded
system.cpu.idleCycles                          309452                       # Total number of cycles that the object has spent stopped
system.cpu.ipc                               0.321274                       # IPC: instructions per cycle
system.cpu.itb.accesses                             0                       # DTB accesses
system.cpu.itb.align_faults                         0                       # Number of TLB faults due to alignment restrictions
system.cpu.itb.domain_faults                        0                       # Number of TLB faults due to domain restrictions
system.cpu.itb.flush_entries                        0                       # Number of entries that have been flushed from TLB
system.cpu.itb.flush_tlb                            0                       # Number of times complete TLB was flushed
system.cpu.itb.flush_tlb_asid                       0                       # Number of times TLB was flushed by ASID
system.cpu.itb.flush_tlb_mva                        0                       # Number of times TLB was flushed by MVA
system.cpu.itb.flush_tlb_mva_asid                   0                       # Number of times TLB was flushed by MVA & ASID
system.cpu.itb.hits                                 0                       # DTB hits
system.cpu.itb.inst_accesses                        0                       # ITB inst accesses
system.cpu.itb.inst_hits                            0                       # ITB inst hits
system.cpu.itb.inst_misses                          0                       # ITB inst misses
system.cpu.itb.misses                               0                       # DTB misses
system.cpu.itb.perms_faults                         0                       # Number of TLB faults due to permissions restrictions
system.cpu.itb.prefetch_faults                      0                       # Number of TLB faults due to prefetch
system.cpu.itb.read_accesses                        0                       # DTB read accesses
system.cpu.itb.read_hits                            0                       # DTB read hits
system.cpu.itb.read_misses                          0                       # DTB read misses
system.cpu.itb.stage2_mmu.stage2_tlb.accesses            0                       # DTB accesses
system.cpu.itb.stage2_mmu.stage2_tlb.align_faults            0                       # Number of TLB faults due to alignment restrictions
system.cpu.itb.stage2_mmu.stage2_tlb.domain_faults            0                       # Number of TLB faults due to domain restrictions
system.cpu.itb.stage2_mmu.stage2_tlb.flush_entries            0                       # Number of entries that have been flushed from TLB
system.cpu.itb.stage2_mmu.stage2_tlb.flush_tlb            0                       # Number of times complete TLB was flushed
system.cpu.itb.stage2_mmu.stage2_tlb.flush_tlb_asid            0                       # Number of times TLB was flushed by ASID
system.cpu.itb.stage2_mmu.stage2_tlb.flush_tlb_mva            0                       # Number of times TLB was flushed by MVA
system.cpu.itb.stage2_mmu.stage2_tlb.flush_tlb_mva_asid            0                       # Number of times TLB was flushed by MVA & ASID
system.cpu.itb.stage2_mmu.stage2_tlb.hits            0                       # DTB hits
system.cpu.itb.stage2_mmu.stage2_tlb.inst_accesses            0                       # ITB inst accesses
system.cpu.itb.stage2_mmu.stage2_tlb.inst_hits            0                       # ITB inst hits
system.cpu.itb.stage2_mmu.stage2_tlb.inst_misses            0                       # ITB inst misses
system.cpu.itb.stage2_mmu.stage2_tlb.misses            0                       # DTB misses
system.cpu.itb.stage2_mmu.stage2_tlb.perms_faults            0                       # Number of TLB faults due to permissions restrictions
system.cpu.itb.stage2_mmu.stage2_tlb.prefetch_faults            0                       # Number of TLB faults due to prefetch
system.cpu.itb.stage2_mmu.stage2_tlb.read_accesses            0                       # DTB read accesses
system.cpu.itb.stage2_mmu.stage2_tlb.read_hits            0                       # DTB read hits
system.cpu.itb.stage2_mmu.stage2_tlb.read_misses            0                       # DTB read misses
system.cpu.itb.stage2_mmu.stage2_tlb.walker.walkRequestOrigin_Requested::Data            0                       # Table walker requests started/completed, data/inst
system.cpu.itb.stage2_mmu.stage2_tlb.walker.walkRequestOrigin_Requested::Inst            0                       # Table walker requests started/completed, data/inst
system.cpu.itb.stage2_mmu.stage2_tlb.walker.walkRequestOrigin_Requested::total            0                       # Table walker requests started/completed, data/inst
system.cpu.itb.stage2_mmu.stage2_tlb.walker.walkRequestOrigin_Completed::Data            0                       # Table walker requests started/completed, data/inst
system.cpu.itb.stage2_mmu.stage2_tlb.walker.walkRequestOrigin_Completed::Inst            0                       # Table walker requests started/completed, data/inst
system.cpu.itb.stage2_mmu.stage2_tlb.walker.walkRequestOrigin_Completed::total            0                       # Table walker requests started/completed, data/inst
system.cpu.itb.stage2_mmu.stage2_tlb.walker.walkRequestOrigin::total            0                       # Table walker requests started/completed, data/inst
system.cpu.itb.stage2_mmu.stage2_tlb.walker.walks            0                       # Table walker walks requested
system.cpu.itb.stage2_mmu.stage2_tlb.write_accesses            0                       # DTB write accesses
system.cpu.itb.stage2_mmu.stage2_tlb.write_hits            0                       # DTB write hits
system.cpu.itb.stage2_mmu.stage2_tlb.write_misses            0                       # DTB write misses
system.cpu.itb.walker.walkRequestOrigin_Requested::Data            0                       # Table walker requests started/completed, data/inst
system.cpu.itb.walker.walkRequestOrigin_Requested::Inst            0                       # Table walker requests started/completed, data/inst
system.cpu.itb.walker.walkRequestOrigin_Requested::total            0                       # Table walker requests started/completed, data/inst
system.cpu.itb.walker.walkRequestOrigin_Completed::Data            0                       # Table walker requests started/completed, data/inst
system.cpu.itb.walker.walkRequestOrigin_Completed::Inst            0                       # Table walker requests started/completed, data/inst
system.cpu.itb.walker.walkRequestOrigin_Completed::total            0                       # Table walker requests started/completed, data/inst
system.cpu.itb.walker.walkRequestOrigin::total            0                       # Table walker requests started/completed, data/inst
system.cpu.itb.walker.walks                         0                       # Table walker walks requested
system.cpu.itb.write_accesses                       0                       # DTB write accesses
system.cpu.itb.write_hits                           0                       # DTB write hits
system.cpu.itb.write_misses                         0                       # DTB write misses
system.cpu.kern.inst.arm                            0                       # number of arm instructions executed
system.cpu.kern.inst.quiesce                       69                       # number of quiesce instructions executed
system.cpu.numCycles                           945027                       # number of cpu cycles simulated
system.cpu.numFetchSuspends                        69                       # Number of times Execute suspended instruction fetching
system.cpu.numWorkItemsCompleted                    0                       # number of work items this cpu completed
system.cpu.numWorkItemsStarted                      0                       # number of work items this cpu started
system.cpu.op_class_0::No_OpClass                   0      0.00%      0.00% # Class of committed instruction
system.cpu.op_class_0::IntAlu                  212710     68.68%     68.68% # Class of committed instruction
system.cpu.op_class_0::IntMult                    338      0.11%     68.79% # Class of committed instruction
system.cpu.op_class_0::IntDiv                       0      0.00%     68.79% # Class of committed instruction
system.cpu.op_class_0::FloatAdd                     0      0.00%     68.79% # Class of committed instruction
system.cpu.op_class_0::FloatCmp                     0      0.00%     68.79% # Class of committed instruction
system.cpu.op_class_0::FloatCvt                     0      0.00%     68.79% # Class of committed instruction
system.cpu.op_class_0::FloatMult                    0      0.00%     68.79% # Class of committed instruction
system.cpu.op_class_0::FloatMultAcc                 0      0.00%     68.79% # Class of committed instruction
system.cpu.op_class_0::FloatDiv                     0      0.00%     68.79% # Class of committed instruction
system.cpu.op_class_0::FloatMisc                    0      0.00%     68.79% # Class of committed instruction
system.cpu.op_class_0::FloatSqrt                    0      0.00%     68.79% # Class of committed instruction
system.cpu.op_class_0::SimdAdd                      0      0.00%     68.79% # Class of committed instruction
system.cpu.op_class_0::SimdAddAcc                   0      0.00%     68.79% # Class of committed instruction
system.cpu.op_class_0::SimdAlu                      0      0.00%     68.79% # Class of committed instruction
system.cpu.op_class_0::SimdCmp                      0      0.00%     68.79% # Class of committed instruction
system.cpu.op_class_0::SimdCvt                      0      0.00%     68.79% # Class of committed instruction
system.cpu.op_class_0::SimdMisc                     0      0.00%     68.79% # Class of committed instruction
system.cpu.op_class_0::SimdMult                     0      0.00%     68.79% # Class of committed instruction
system.cpu.op_class_0::SimdMultAcc                  0      0.00%     68.79% # Class of committed instruction
system.cpu.op_class_0::SimdShift                    0      0.00%     68.79% # Class of committed instruction
system.cpu.op_class_0::SimdShiftAcc                 0      0.00%     68.79% # Class of committed instruction
system.cpu.op_class_0::SimdDiv                      0      0.00%     68.79% # Class of committed instruction
system.cpu.op_class_0::SimdSqrt                     0      0.00%     68.79% # Class of committed instruction
system.cpu.op_class_0::SimdFloatAdd                 0      0.00%     68.79% # Class of committed instruction
system.cpu.op_class_0::SimdFloatAlu                 0      0.00%     68.79% # Class of committed instruction
system.cpu.op_class_0::SimdFloatCmp                 0      0.00%     68.79% # Class of committed instruction
system.cpu.op_class_0::SimdFloatCvt                 0      0.00%     68.79% # Class of committed instruction
system.cpu.op_class_0::SimdFloatDiv                 0      0.00%     68.79% # Class of committed instruction
system.cpu.op_class_0::SimdFloatMisc                0      0.00%     68.79% # Class of committed instruction
system.cpu.op_class_0::SimdFloatMult                0      0.00%     68.79% # Class of committed instruction
system.cpu.op_class_0::SimdFloatMultAcc             0      0.00%     68.79% # Class of committed instruction
system.cpu.op_class_0::SimdFloatSqrt                0      0.00%     68.79% # Class of committed instruction
system.cpu.op_class_0::SimdReduceAdd                0      0.00%     68.79% # Class of committed instruction
system.cpu.op_class_0::SimdReduceAlu                0      0.00%     68.79% # Class of committed instruction
system.cpu.op_class_0::SimdReduceCmp                0      0.00%     68.79% # Class of committed instruction
system.cpu.op_class_0::SimdFloatReduceAdd            0      0.00%     68.79% # Class of committed instruction
system.cpu.op_class_0::SimdFloatReduceCmp            0      0.00%     68.79% # Class of committed instruction
system.cpu.op_class_0::SimdAes                      0      0.00%     68.79% # Class of committed instruction
system.cpu.op_class_0::SimdAesMix                   0      0.00%     68.79% # Class of committed instruction
system.cpu.op_class_0::SimdSha1Hash                 0      0.00%     68.79% # Class of committed instruction
system.cpu.op_class_0::SimdSha1Hash2                0      0.00%     68.79% # Class of committed instruction
system.cpu.op_class_0::SimdSha256Hash               0      0.00%     68.79% # Class of committed instruction
system.cpu.op_class_0::SimdSha256Hash2              0      0.00%     68.79% # Class of committed instruction
system.cpu.op_class_0::SimdShaSigma2                0      0.00%     68.79% # Class of committed instruction
system.cpu.op_class_0::SimdShaSigma3                0      0.00%     68.79% # Class of committed instruction
system.cpu.op_class_0::SimdPredAlu                  0      0.00%     68.79% # Class of committed instruction
system.cpu.op_class_0::MemRead                  17410      5.62%     74.41% # Class of committed instruction
system.cpu.op_class_0::MemWrite                 79261     25.59%    100.00% # Class of committed instruction
system.cpu.op_class_0::FloatMemRead                 0      0.00%    100.00% # Class of committed instruction
system.cpu.op_class_0::FloatMemWrite                0      0.00%    100.00% # Class of committed instruction
system.cpu.op_class_0::IprAccess                    0      0.00%    100.00% # Class of committed instruction
system.cpu.op_class_0::InstPrefetch                 0      0.00%    100.00% # Class of committed instruction
system.cpu.op_class_0::total                   309719                       # Class of committed instruction
system.cpu.quiesceCycles                     15098378                       # Total number of cycles that CPU has spent quiesced or waiting for an interrupt
system.cpu.tickCycles                          635575                       # Number of cycles that the object actually ticked
system.membus.snoop_filter.hit_multi_requests            5                       # Number of requests hitting in the snoop filter with multiple (>1) holders of the requested data.
system.membus.snoop_filter.hit_multi_snoops            0                       # Number of snoops hitting in the snoop filter with multiple (>1) holders of the requested data.
system.membus.snoop_filter.hit_single_requests           82                       # Number of requests hitting in the snoop filter with a single holder of the requested data.
system.membus.snoop_filter.hit_single_snoops            0                       # Number of snoops hitting in the snoop filter with a single holder of the requested data.
system.membus.snoop_filter.tot_requests         68059                       # Total number of requests made to the snoop filter.
system.membus.snoop_filter.tot_snoops               0                       # Total number of snoops made to the snoop filter.
system.bridge.pwrStateResidencyTicks::UNDEFINED  10048027500                       # Cumulative time (in ticks) in various power states
system.voltage_domain.voltage                       1                       # Voltage in Volts
system.iocache.pwrStateResidencyTicks::UNDEFINED  10048027500                       # Cumulative time (in ticks) in various power states
system.iocache.blocked_cycles::no_mshrs             0                       # number of cycles access was blocked
system.iocache.blocked_cycles::no_targets            0                       # number of cycles access was blocked
system.iocache.blocked::no_mshrs                    0                       # number of cycles access was blocked
system.iocache.blocked::no_targets                  0                       # number of cycles access was blocked
system.iocache.avg_blocked_cycles::no_mshrs          nan                       # average number of cycles each access was blocked
system.iocache.avg_blocked_cycles::no_targets          nan                       # average number of cycles each access was blocked
system.iocache.replacements                         0                       # number of replacements
system.iocache.tags.pwrStateResidencyTicks::UNDEFINED  10048027500                       # Cumulative time (in ticks) in various power states
system.iocache.tags.tagsinuse                       0                       # Cycle average of tags in use
system.iocache.tags.total_refs                      0                       # Total number of references to valid blocks.
system.iocache.tags.sampled_refs                    0                       # Sample count of references to valid blocks.
system.iocache.tags.avg_refs                      nan                       # Average number of references to valid blocks.
system.iocache.tags.warmup_cycle                    0                       # Cycle when the warmup percentage was hit.
system.iocache.tags.tag_accesses                    0                       # Number of tag accesses
system.iocache.tags.data_accesses                   0                       # Number of data accesses
system.membus.pwrStateResidencyTicks::UNDEFINED  10048027500                       # Cumulative time (in ticks) in various power states
system.membus.trans_dist::ReadReq               18038                       # Transaction distribution
system.membus.trans_dist::ReadResp              18372                       # Transaction distribution
system.membus.trans_dist::WriteReq              16630                       # Transaction distribution
system.membus.trans_dist::WriteResp             16630                       # Transaction distribution
system.membus.trans_dist::WritebackDirty            7                       # Transaction distribution
system.membus.trans_dist::WriteClean                9                       # Transaction distribution
system.membus.trans_dist::CleanEvict               46                       # Transaction distribution
system.membus.trans_dist::ReadExReq                19                       # Transaction distribution
system.membus.trans_dist::ReadExResp               19                       # Transaction distribution
system.membus.trans_dist::ReadCleanReq            307                       # Transaction distribution
system.membus.trans_dist::ReadSharedReq            27                       # Transaction distribution
system.membus.trans_dist::CleanInvalidReq        33823                       # Transaction distribution
system.membus.trans_dist::InvalidateReq         33823                       # Transaction distribution
system.membus.pkt_count_system.cpu.icache.mem_side::system.realview.bootmem.port          659                       # Packet count per connected master and slave (bytes)
system.membus.pkt_count_system.cpu.icache.mem_side::total          659                       # Packet count per connected master and slave (bytes)
system.membus.pkt_count_system.cpu.dcache.mem_side::system.realview.bootmem.port           44                       # Packet count per connected master and slave (bytes)
system.membus.pkt_count_system.cpu.dcache.mem_side::system.realview.gic.pio          348                       # Packet count per connected master and slave (bytes)
system.membus.pkt_count_system.cpu.dcache.mem_side::system.mem_ctrls.port        67711                       # Packet count per connected master and slave (bytes)
system.membus.pkt_count_system.cpu.dcache.mem_side::system.acctest.mem2cls.slave         1342                       # Packet count per connected master and slave (bytes)
system.membus.pkt_count_system.cpu.dcache.mem_side::total        69445                       # Packet count per connected master and slave (bytes)
system.membus.pkt_count_system.acctest.coherency_bus.master[0]::system.mem_ctrls.port        67646                       # Packet count per connected master and slave (bytes)
system.membus.pkt_count_system.acctest.coherency_bus.master[0]::total        67646                       # Packet count per connected master and slave (bytes)
system.membus.pkt_count::total                 137750                       # Packet count per connected master and slave (bytes)
system.membus.pkt_size_system.cpu.icache.mem_side::system.realview.bootmem.port        19648                       # Cumulative packet size per connected master and slave (bytes)
system.membus.pkt_size_system.cpu.icache.mem_side::total        19648                       # Cumulative packet size per connected master and slave (bytes)
system.membus.pkt_size_system.cpu.dcache.mem_side::system.realview.bootmem.port         1408                       # Cumulative packet size per connected master and slave (bytes)
system.membus.pkt_size_system.cpu.dcache.mem_side::system.realview.gic.pio          696                       # Cumulative packet size per connected master and slave (bytes)
system.membus.pkt_size_system.cpu.dcache.mem_side::system.mem_ctrls.port         2560                       # Cumulative packet size per connected master and slave (bytes)
system.membus.pkt_size_system.cpu.dcache.mem_side::system.acctest.mem2cls.slave         1913                       # Cumulative packet size per connected master and slave (bytes)
system.membus.pkt_size_system.cpu.dcache.mem_side::total         6577                       # Cumulative packet size per connected master and slave (bytes)
system.membus.pkt_size_system.acctest.coherency_bus.master[0]::system.mem_ctrls.port      2164268                       # Cumulative packet size per connected master and slave (bytes)
system.membus.pkt_size_system.acctest.coherency_bus.master[0]::total      2164268                       # Cumulative packet size per connected master and slave (bytes)
system.membus.pkt_size::total                 2190493                       # Cumulative packet size per connected master and slave (bytes)
system.membus.snoops                                0                       # Total snoops (count)
system.membus.snoopTraffic                          0                       # Total snoop traffic (bytes)
system.membus.snoop_fanout::samples            102692                       # Request fanout histogram
system.membus.snoop_fanout::mean             0.000243                       # Request fanout histogram
system.membus.snoop_fanout::stdev            0.015601                       # Request fanout histogram
system.membus.snoop_fanout::underflows              0      0.00%      0.00% # Request fanout histogram
system.membus.snoop_fanout::0                  102667     99.98%     99.98% # Request fanout histogram
system.membus.snoop_fanout::1                      25      0.02%    100.00% # Request fanout histogram
system.membus.snoop_fanout::2                       0      0.00%    100.00% # Request fanout histogram
system.membus.snoop_fanout::3                       0      0.00%    100.00% # Request fanout histogram
system.membus.snoop_fanout::4                       0      0.00%    100.00% # Request fanout histogram
system.membus.snoop_fanout::overflows               0      0.00%    100.00% # Request fanout histogram
system.membus.snoop_fanout::min_value               0                       # Request fanout histogram
system.membus.snoop_fanout::max_value               1                       # Request fanout histogram
system.membus.snoop_fanout::total              102692                       # Request fanout histogram
system.membus.reqLayer6.occupancy           187460415                       # Layer occupancy (ticks)
system.membus.reqLayer6.utilization               1.9                       # Layer utilization (%)
system.membus.reqLayer7.occupancy             1699375                       # Layer occupancy (ticks)
system.membus.reqLayer7.utilization               0.0                       # Layer utilization (%)
system.membus.reqLayer1.occupancy              572015                       # Layer occupancy (ticks)
system.membus.reqLayer1.utilization               0.0                       # Layer utilization (%)
system.membus.reqLayer2.occupancy              340500                       # Layer occupancy (ticks)
system.membus.reqLayer2.utilization               0.0                       # Layer utilization (%)
system.membus.badaddr_responder.pwrStateResidencyTicks::UNDEFINED  10048027500                       # Cumulative time (in ticks) in various power states
system.membus.respLayer4.occupancy            1184980                       # Layer occupancy (ticks)
system.membus.respLayer4.utilization              0.0                       # Layer utilization (%)
system.membus.respLayer7.occupancy          118282535                       # Layer occupancy (ticks)
system.membus.respLayer7.utilization              1.2                       # Layer utilization (%)
system.membus.respLayer3.occupancy            1543250                       # Layer occupancy (ticks)
system.membus.respLayer3.utilization              0.0                       # Layer utilization (%)
system.acctest.harris_non_max0_spm.pwrStateResidencyTicks::UNDEFINED  10048027500                       # Cumulative time (in ticks) in various power states
system.acctest.harris_non_max0_spm.bytes_read::.acctest.harris_non_max0.system.acctest.harris_non_max0        65536                       # Number of bytes read from this memory
system.acctest.harris_non_max0_spm.bytes_read::.acctest.harris_non_max0_dma        16384                       # Number of bytes read from this memory
system.acctest.harris_non_max0_spm.bytes_read::total        81920                       # Number of bytes read from this memory
system.acctest.harris_non_max0_spm.bytes_written::.acctest.harris_non_max0.system.acctest.harris_non_max0        16384                       # Number of bytes written to this memory
system.acctest.harris_non_max0_spm.bytes_written::.acctest.harris_non_max0_dma        65536                       # Number of bytes written to this memory
system.acctest.harris_non_max0_spm.bytes_written::total        81920                       # Number of bytes written to this memory
system.acctest.harris_non_max0_spm.num_reads::.acctest.harris_non_max0.system.acctest.harris_non_max0        16384                       # Number of read requests responded to by this memory
system.acctest.harris_non_max0_spm.num_reads::.acctest.harris_non_max0_dma          512                       # Number of read requests responded to by this memory
system.acctest.harris_non_max0_spm.num_reads::total        16896                       # Number of read requests responded to by this memory
system.acctest.harris_non_max0_spm.num_writes::.acctest.harris_non_max0.system.acctest.harris_non_max0        16384                       # Number of write requests responded to by this memory
system.acctest.harris_non_max0_spm.num_writes::.acctest.harris_non_max0_dma         2048                       # Number of write requests responded to by this memory
system.acctest.harris_non_max0_spm.num_writes::total        18432                       # Number of write requests responded to by this memory
system.acctest.harris_non_max0_spm.bw_read::.acctest.harris_non_max0.system.acctest.harris_non_max0      6535869                       # Total read bandwidth from this memory (bytes/s)
system.acctest.harris_non_max0_spm.bw_read::.acctest.harris_non_max0_dma      1633967                       # Total read bandwidth from this memory (bytes/s)
system.acctest.harris_non_max0_spm.bw_read::total      8169837                       # Total read bandwidth from this memory (bytes/s)
system.acctest.harris_non_max0_spm.bw_write::.acctest.harris_non_max0.system.acctest.harris_non_max0      1633967                       # Write bandwidth from this memory (bytes/s)
system.acctest.harris_non_max0_spm.bw_write::.acctest.harris_non_max0_dma      6535869                       # Write bandwidth from this memory (bytes/s)
system.acctest.harris_non_max0_spm.bw_write::total      8169837                       # Write bandwidth from this memory (bytes/s)
system.acctest.harris_non_max0_spm.bw_total::.acctest.harris_non_max0.system.acctest.harris_non_max0      8169837                       # Total bandwidth to/from this memory (bytes/s)
system.acctest.harris_non_max0_spm.bw_total::.acctest.harris_non_max0_dma      8169837                       # Total bandwidth to/from this memory (bytes/s)
system.acctest.harris_non_max0_spm.bw_total::total     16339674                       # Total bandwidth to/from this memory (bytes/s)
system.acctest.elem_matrix2_spm.pwrStateResidencyTicks::UNDEFINED  10048027500                       # Cumulative time (in ticks) in various power states
system.acctest.elem_matrix3_spm.pwrStateResidencyTicks::UNDEFINED  10048027500                       # Cumulative time (in ticks) in various power states
system.acctest.local_bus.pwrStateResidencyTicks::UNDEFINED  10048027500                       # Cumulative time (in ticks) in various power states
system.acctest.local_bus.trans_dist::ReadReq        55296                       # Transaction distribution
system.acctest.local_bus.trans_dist::ReadResp        55296                       # Transaction distribution
system.acctest.local_bus.trans_dist::WriteReq        60122                       # Transaction distribution
system.acctest.local_bus.trans_dist::WriteResp        60122                       # Transaction distribution
system.acctest.local_bus.pkt_count_system.acctest.mem2cls.master::system.acctest.canny_non_max0.pio           12                       # Packet count per connected master and slave (bytes)
system.acctest.local_bus.pkt_count_system.acctest.mem2cls.master::system.acctest.canny_non_max0_dma.pio           28                       # Packet count per connected master and slave (bytes)
system.acctest.local_bus.pkt_count_system.acctest.mem2cls.master::system.acctest.convolution0.pio          160                       # Packet count per connected master and slave (bytes)
system.acctest.local_bus.pkt_count_system.acctest.mem2cls.master::system.acctest.convolution0_dma.pio          308                       # Packet count per connected master and slave (bytes)
system.acctest.local_bus.pkt_count_system.acctest.mem2cls.master::system.acctest.edge_tracking0.pio           16                       # Packet count per connected master and slave (bytes)
system.acctest.local_bus.pkt_count_system.acctest.mem2cls.master::system.acctest.edge_tracking0_dma.pio           28                       # Packet count per connected master and slave (bytes)
system.acctest.local_bus.pkt_count_system.acctest.mem2cls.master::system.acctest.elem_matrix0.pio          300                       # Packet count per connected master and slave (bytes)
system.acctest.local_bus.pkt_count_system.acctest.mem2cls.master::system.acctest.elem_matrix0_dma.pio          336                       # Packet count per connected master and slave (bytes)
system.acctest.local_bus.pkt_count_system.acctest.mem2cls.master::system.acctest.grayscale0.pio           20                       # Packet count per connected master and slave (bytes)
system.acctest.local_bus.pkt_count_system.acctest.mem2cls.master::system.acctest.grayscale0_dma.pio           42                       # Packet count per connected master and slave (bytes)
system.acctest.local_bus.pkt_count_system.acctest.mem2cls.master::system.acctest.harris_non_max0.pio           12                       # Packet count per connected master and slave (bytes)
system.acctest.local_bus.pkt_count_system.acctest.mem2cls.master::system.acctest.harris_non_max0_dma.pio           28                       # Packet count per connected master and slave (bytes)
system.acctest.local_bus.pkt_count_system.acctest.mem2cls.master::system.acctest.isp0.pio           24                       # Packet count per connected master and slave (bytes)
system.acctest.local_bus.pkt_count_system.acctest.mem2cls.master::system.acctest.isp0_dma.pio           28                       # Packet count per connected master and slave (bytes)
system.acctest.local_bus.pkt_count_system.acctest.mem2cls.master::total         1342                       # Packet count per connected master and slave (bytes)
system.acctest.local_bus.pkt_count_system.acctest.canny_non_max0_dma.dma::system.acctest.canny_non_max0_spm.port         8192                       # Packet count per connected master and slave (bytes)
system.acctest.local_bus.pkt_count_system.acctest.canny_non_max0_dma.dma::system.acctest.elem_matrix0_spm.port         4096                       # Packet count per connected master and slave (bytes)
system.acctest.local_bus.pkt_count_system.acctest.canny_non_max0_dma.dma::total        12288                       # Packet count per connected master and slave (bytes)
system.acctest.local_bus.pkt_count_system.acctest.convolution0_dma.dma::system.acctest.convolution0_spm.port        57392                       # Packet count per connected master and slave (bytes)
system.acctest.local_bus.pkt_count_system.acctest.convolution0_dma.dma::system.acctest.grayscale0_spm.port         4096                       # Packet count per connected master and slave (bytes)
system.acctest.local_bus.pkt_count_system.acctest.convolution0_dma.dma::total        61488                       # Packet count per connected master and slave (bytes)
system.acctest.local_bus.pkt_count_system.acctest.edge_tracking0_dma.dma::system.acctest.canny_non_max0_spm.port         4096                       # Packet count per connected master and slave (bytes)
system.acctest.local_bus.pkt_count_system.acctest.edge_tracking0_dma.dma::system.acctest.edge_tracking0_spm.port         5120                       # Packet count per connected master and slave (bytes)
system.acctest.local_bus.pkt_count_system.acctest.edge_tracking0_dma.dma::total         9216                       # Packet count per connected master and slave (bytes)
system.acctest.local_bus.pkt_count_system.acctest.elem_matrix0_dma.dma::system.acctest.convolution0_spm.port        24576                       # Packet count per connected master and slave (bytes)
system.acctest.local_bus.pkt_count_system.acctest.elem_matrix0_dma.dma::system.acctest.elem_matrix0_spm.port        94210                       # Packet count per connected master and slave (bytes)
system.acctest.local_bus.pkt_count_system.acctest.elem_matrix0_dma.dma::total       118786                       # Packet count per connected master and slave (bytes)
system.acctest.local_bus.pkt_count_system.acctest.grayscale0_dma.dma::system.acctest.grayscale0_spm.port        10240                       # Packet count per connected master and slave (bytes)
system.acctest.local_bus.pkt_count_system.acctest.grayscale0_dma.dma::system.acctest.isp0_spm.port         6144                       # Packet count per connected master and slave (bytes)
system.acctest.local_bus.pkt_count_system.acctest.grayscale0_dma.dma::total        16384                       # Packet count per connected master and slave (bytes)
system.acctest.local_bus.pkt_count_system.acctest.harris_non_max0_dma.dma::system.acctest.elem_matrix0_spm.port         4096                       # Packet count per connected master and slave (bytes)
system.acctest.local_bus.pkt_count_system.acctest.harris_non_max0_dma.dma::system.acctest.harris_non_max0_spm.port         5120                       # Packet count per connected master and slave (bytes)
system.acctest.local_bus.pkt_count_system.acctest.harris_non_max0_dma.dma::total         9216                       # Packet count per connected master and slave (bytes)
system.acctest.local_bus.pkt_count_system.acctest.isp0_dma.dma::system.acctest.isp0_spm.port         2116                       # Packet count per connected master and slave (bytes)
system.acctest.local_bus.pkt_count_system.acctest.isp0_dma.dma::total         2116                       # Packet count per connected master and slave (bytes)
system.acctest.local_bus.pkt_count::total       230836                       # Packet count per connected master and slave (bytes)
system.acctest.local_bus.pkt_size_system.acctest.mem2cls.master::system.acctest.canny_non_max0.pio           15                       # Cumulative packet size per connected master and slave (bytes)
system.acctest.local_bus.pkt_size_system.acctest.mem2cls.master::system.acctest.canny_non_max0_dma.pio           44                       # Cumulative packet size per connected master and slave (bytes)
system.acctest.local_bus.pkt_size_system.acctest.mem2cls.master::system.acctest.convolution0.pio          224                       # Cumulative packet size per connected master and slave (bytes)
system.acctest.local_bus.pkt_size_system.acctest.mem2cls.master::system.acctest.convolution0_dma.pio          484                       # Cumulative packet size per connected master and slave (bytes)
system.acctest.local_bus.pkt_size_system.acctest.mem2cls.master::system.acctest.edge_tracking0.pio           23                       # Cumulative packet size per connected master and slave (bytes)
system.acctest.local_bus.pkt_size_system.acctest.mem2cls.master::system.acctest.edge_tracking0_dma.pio           44                       # Cumulative packet size per connected master and slave (bytes)
system.acctest.local_bus.pkt_size_system.acctest.mem2cls.master::system.acctest.elem_matrix0.pio          330                       # Cumulative packet size per connected master and slave (bytes)
system.acctest.local_bus.pkt_size_system.acctest.mem2cls.master::system.acctest.elem_matrix0_dma.pio          528                       # Cumulative packet size per connected master and slave (bytes)
system.acctest.local_bus.pkt_size_system.acctest.mem2cls.master::system.acctest.grayscale0.pio           22                       # Cumulative packet size per connected master and slave (bytes)
system.acctest.local_bus.pkt_size_system.acctest.mem2cls.master::system.acctest.grayscale0_dma.pio           66                       # Cumulative packet size per connected master and slave (bytes)
system.acctest.local_bus.pkt_size_system.acctest.mem2cls.master::system.acctest.harris_non_max0.pio           15                       # Cumulative packet size per connected master and slave (bytes)
system.acctest.local_bus.pkt_size_system.acctest.mem2cls.master::system.acctest.harris_non_max0_dma.pio           44                       # Cumulative packet size per connected master and slave (bytes)
system.acctest.local_bus.pkt_size_system.acctest.mem2cls.master::system.acctest.isp0.pio           30                       # Cumulative packet size per connected master and slave (bytes)
system.acctest.local_bus.pkt_size_system.acctest.mem2cls.master::system.acctest.isp0_dma.pio           44                       # Cumulative packet size per connected master and slave (bytes)
system.acctest.local_bus.pkt_size_system.acctest.mem2cls.master::total         1913                       # Cumulative packet size per connected master and slave (bytes)
system.acctest.local_bus.pkt_size_system.acctest.canny_non_max0_dma.dma::system.acctest.canny_non_max0_spm.port       131072                       # Cumulative packet size per connected master and slave (bytes)
system.acctest.local_bus.pkt_size_system.acctest.canny_non_max0_dma.dma::system.acctest.elem_matrix0_spm.port        65536                       # Cumulative packet size per connected master and slave (bytes)
system.acctest.local_bus.pkt_size_system.acctest.canny_non_max0_dma.dma::total       196608                       # Cumulative packet size per connected master and slave (bytes)
system.acctest.local_bus.pkt_size_system.acctest.convolution0_dma.dma::system.acctest.convolution0_spm.port       918048                       # Cumulative packet size per connected master and slave (bytes)
system.acctest.local_bus.pkt_size_system.acctest.convolution0_dma.dma::system.acctest.grayscale0_spm.port        65536                       # Cumulative packet size per connected master and slave (bytes)
system.acctest.local_bus.pkt_size_system.acctest.convolution0_dma.dma::total       983584                       # Cumulative packet size per connected master and slave (bytes)
system.acctest.local_bus.pkt_size_system.acctest.edge_tracking0_dma.dma::system.acctest.canny_non_max0_spm.port        65536                       # Cumulative packet size per connected master and slave (bytes)
system.acctest.local_bus.pkt_size_system.acctest.edge_tracking0_dma.dma::system.acctest.edge_tracking0_spm.port        81920                       # Cumulative packet size per connected master and slave (bytes)
system.acctest.local_bus.pkt_size_system.acctest.edge_tracking0_dma.dma::total       147456                       # Cumulative packet size per connected master and slave (bytes)
system.acctest.local_bus.pkt_size_system.acctest.elem_matrix0_dma.dma::system.acctest.convolution0_spm.port       393216                       # Cumulative packet size per connected master and slave (bytes)
system.acctest.local_bus.pkt_size_system.acctest.elem_matrix0_dma.dma::system.acctest.elem_matrix0_spm.port      1507332                       # Cumulative packet size per connected master and slave (bytes)
system.acctest.local_bus.pkt_size_system.acctest.elem_matrix0_dma.dma::total      1900548                       # Cumulative packet size per connected master and slave (bytes)
system.acctest.local_bus.pkt_size_system.acctest.grayscale0_dma.dma::system.acctest.grayscale0_spm.port       163840                       # Cumulative packet size per connected master and slave (bytes)
system.acctest.local_bus.pkt_size_system.acctest.grayscale0_dma.dma::system.acctest.isp0_spm.port        98304                       # Cumulative packet size per connected master and slave (bytes)
system.acctest.local_bus.pkt_size_system.acctest.grayscale0_dma.dma::total       262144                       # Cumulative packet size per connected master and slave (bytes)
system.acctest.local_bus.pkt_size_system.acctest.harris_non_max0_dma.dma::system.acctest.elem_matrix0_spm.port        65536                       # Cumulative packet size per connected master and slave (bytes)
system.acctest.local_bus.pkt_size_system.acctest.harris_non_max0_dma.dma::system.acctest.harris_non_max0_spm.port        81920                       # Cumulative packet size per connected master and slave (bytes)
system.acctest.local_bus.pkt_size_system.acctest.harris_non_max0_dma.dma::total       147456                       # Cumulative packet size per connected master and slave (bytes)
system.acctest.local_bus.pkt_size_system.acctest.isp0_dma.dma::system.acctest.isp0_spm.port        33800                       # Cumulative packet size per connected master and slave (bytes)
system.acctest.local_bus.pkt_size_system.acctest.isp0_dma.dma::total        33800                       # Cumulative packet size per connected master and slave (bytes)
system.acctest.local_bus.pkt_size::total      3673509                       # Cumulative packet size per connected master and slave (bytes)
system.acctest.local_bus.occupancy          339753625                       # Network occupancy (ticks)
system.acctest.local_bus.utilization              3.4                       # Network utilization (%)
system.acctest.local_bus.reqLayer0.occupancy    292305828                       # Layer occupancy (ticks)
system.acctest.local_bus.reqLayer0.utilization          2.9                       # Layer utilization (%)
system.acctest.local_bus.respLayer0.occupancy    227546000                       # Layer occupancy (ticks)
system.acctest.local_bus.respLayer0.utilization          2.3                       # Layer utilization (%)
system.acctest.isp0.pwrStateResidencyTicks::UNDEFINED  10048027500                       # Cumulative time (in ticks) in various power states
system.acctest.edge_tracking0.pwrStateResidencyTicks::UNDEFINED  10048027500                       # Cumulative time (in ticks) in various power states
system.acctest.grayscale0_spm.pwrStateResidencyTicks::UNDEFINED  10048027500                       # Cumulative time (in ticks) in various power states
system.acctest.grayscale0_spm.bytes_read::.acctest.convolution0_dma        65536                       # Number of bytes read from this memory
system.acctest.grayscale0_spm.bytes_read::.acctest.grayscale0.system.acctest.grayscale0        98304                       # Number of bytes read from this memory
system.acctest.grayscale0_spm.bytes_read::.acctest.grayscale0_dma        65536                       # Number of bytes read from this memory
system.acctest.grayscale0_spm.bytes_read::total       229376                       # Number of bytes read from this memory
system.acctest.grayscale0_spm.bytes_written::.acctest.grayscale0.system.acctest.grayscale0       131072                       # Number of bytes written to this memory
system.acctest.grayscale0_spm.bytes_written::.acctest.grayscale0_dma        98304                       # Number of bytes written to this memory
system.acctest.grayscale0_spm.bytes_written::total       229376                       # Number of bytes written to this memory
system.acctest.grayscale0_spm.num_reads::.acctest.convolution0_dma         2048                       # Number of read requests responded to by this memory
system.acctest.grayscale0_spm.num_reads::.acctest.grayscale0.system.acctest.grayscale0        98304                       # Number of read requests responded to by this memory
system.acctest.grayscale0_spm.num_reads::.acctest.grayscale0_dma         2048                       # Number of read requests responded to by this memory
system.acctest.grayscale0_spm.num_reads::total       102400                       # Number of read requests responded to by this memory
system.acctest.grayscale0_spm.num_writes::.acctest.grayscale0.system.acctest.grayscale0        32768                       # Number of write requests responded to by this memory
system.acctest.grayscale0_spm.num_writes::.acctest.grayscale0_dma         3072                       # Number of write requests responded to by this memory
system.acctest.grayscale0_spm.num_writes::total        35840                       # Number of write requests responded to by this memory
system.acctest.grayscale0_spm.bw_read::.acctest.convolution0_dma      6535869                       # Total read bandwidth from this memory (bytes/s)
system.acctest.grayscale0_spm.bw_read::.acctest.grayscale0.system.acctest.grayscale0      9803804                       # Total read bandwidth from this memory (bytes/s)
system.acctest.grayscale0_spm.bw_read::.acctest.grayscale0_dma      6535869                       # Total read bandwidth from this memory (bytes/s)
system.acctest.grayscale0_spm.bw_read::total     22875543                       # Total read bandwidth from this memory (bytes/s)
system.acctest.grayscale0_spm.bw_write::.acctest.grayscale0.system.acctest.grayscale0     13071739                       # Write bandwidth from this memory (bytes/s)
system.acctest.grayscale0_spm.bw_write::.acctest.grayscale0_dma      9803804                       # Write bandwidth from this memory (bytes/s)
system.acctest.grayscale0_spm.bw_write::total     22875543                       # Write bandwidth from this memory (bytes/s)
system.acctest.grayscale0_spm.bw_total::.acctest.convolution0_dma      6535869                       # Total bandwidth to/from this memory (bytes/s)
system.acctest.grayscale0_spm.bw_total::.acctest.grayscale0.system.acctest.grayscale0     22875543                       # Total bandwidth to/from this memory (bytes/s)
system.acctest.grayscale0_spm.bw_total::.acctest.grayscale0_dma     16339674                       # Total bandwidth to/from this memory (bytes/s)
system.acctest.grayscale0_spm.bw_total::total     45751086                       # Total bandwidth to/from this memory (bytes/s)
system.acctest.elem_matrix1_dma.pwrStateResidencyTicks::UNDEFINED  10048027500                       # Cumulative time (in ticks) in various power states
system.acctest.mem2cls.pwrStateResidencyTicks::UNDEFINED  10048027500                       # Cumulative time (in ticks) in various power states
system.acctest.isp0_dma.pwrStateResidencyTicks::UNDEFINED  10048027500                       # Cumulative time (in ticks) in various power states
system.acctest.grayscale0_dma.pwrStateResidencyTicks::UNDEFINED  10048027500                       # Cumulative time (in ticks) in various power states
system.acctest.convolution0.pwrStateResidencyTicks::UNDEFINED  10048027500                       # Cumulative time (in ticks) in various power states
system.acctest.convolution1.pwrStateResidencyTicks::UNDEFINED  10048027500                       # Cumulative time (in ticks) in various power states
system.acctest.isp0_spm.pwrStateResidencyTicks::UNDEFINED  10048027500                       # Cumulative time (in ticks) in various power states
system.acctest.isp0_spm.bytes_read::.acctest.grayscale0_dma        98304                       # Number of bytes read from this memory
system.acctest.isp0_spm.bytes_read::.acctest.isp0.system.acctest.isp0       229376                       # Number of bytes read from this memory
system.acctest.isp0_spm.bytes_read::total       327680                       # Number of bytes read from this memory
system.acctest.isp0_spm.bytes_written::.acctest.isp0.system.acctest.isp0        98304                       # Number of bytes written to this memory
system.acctest.isp0_spm.bytes_written::.acctest.isp0_dma        33800                       # Number of bytes written to this memory
system.acctest.isp0_spm.bytes_written::total       132104                       # Number of bytes written to this memory
system.acctest.isp0_spm.num_reads::.acctest.grayscale0_dma         3072                       # Number of read requests responded to by this memory
system.acctest.isp0_spm.num_reads::.acctest.isp0.system.acctest.isp0       229376                       # Number of read requests responded to by this memory
system.acctest.isp0_spm.num_reads::total       232448                       # Number of read requests responded to by this memory
system.acctest.isp0_spm.num_writes::.acctest.isp0.system.acctest.isp0        98304                       # Number of write requests responded to by this memory
system.acctest.isp0_spm.num_writes::.acctest.isp0_dma         1058                       # Number of write requests responded to by this memory
system.acctest.isp0_spm.num_writes::total        99362                       # Number of write requests responded to by this memory
system.acctest.isp0_spm.bw_read::.acctest.grayscale0_dma      9803804                       # Total read bandwidth from this memory (bytes/s)
system.acctest.isp0_spm.bw_read::.acctest.isp0.system.acctest.isp0     22875543                       # Total read bandwidth from this memory (bytes/s)
system.acctest.isp0_spm.bw_read::total       32679347                       # Total read bandwidth from this memory (bytes/s)
system.acctest.isp0_spm.bw_write::.acctest.isp0.system.acctest.isp0      9803804                       # Write bandwidth from this memory (bytes/s)
system.acctest.isp0_spm.bw_write::.acctest.isp0_dma      3370856                       # Write bandwidth from this memory (bytes/s)
system.acctest.isp0_spm.bw_write::total      13174660                       # Write bandwidth from this memory (bytes/s)
system.acctest.isp0_spm.bw_total::.acctest.grayscale0_dma      9803804                       # Total bandwidth to/from this memory (bytes/s)
system.acctest.isp0_spm.bw_total::.acctest.isp0.system.acctest.isp0     32679347                       # Total bandwidth to/from this memory (bytes/s)
system.acctest.isp0_spm.bw_total::.acctest.isp0_dma      3370856                       # Total bandwidth to/from this memory (bytes/s)
system.acctest.isp0_spm.bw_total::total      45854007                       # Total bandwidth to/from this memory (bytes/s)
system.acctest.coherency_bus.pwrStateResidencyTicks::UNDEFINED  10048027500                       # Cumulative time (in ticks) in various power states
system.acctest.coherency_bus.trans_dist::ReadReq        17951                       # Transaction distribution
system.acctest.coherency_bus.trans_dist::ReadResp        17951                       # Transaction distribution
system.acctest.coherency_bus.trans_dist::WriteReq        15872                       # Transaction distribution
system.acctest.coherency_bus.trans_dist::WriteResp        15872                       # Transaction distribution
system.acctest.coherency_bus.pkt_count_system.acctest.canny_non_max0_dma.dma::system.membus.slave[7]         2048                       # Packet count per connected master and slave (bytes)
system.acctest.coherency_bus.pkt_count_system.acctest.convolution0_dma.dma::system.membus.slave[7]        26648                       # Packet count per connected master and slave (bytes)
system.acctest.coherency_bus.pkt_count_system.acctest.edge_tracking0_dma.dma::system.membus.slave[7]          512                       # Packet count per connected master and slave (bytes)
system.acctest.coherency_bus.pkt_count_system.acctest.elem_matrix0_dma.dma::system.membus.slave[7]        34818                       # Packet count per connected master and slave (bytes)
system.acctest.coherency_bus.pkt_count_system.acctest.grayscale0_dma.dma::system.membus.slave[7]         2048                       # Packet count per connected master and slave (bytes)
system.acctest.coherency_bus.pkt_count_system.acctest.harris_non_max0_dma.dma::system.membus.slave[7]          512                       # Packet count per connected master and slave (bytes)
system.acctest.coherency_bus.pkt_count_system.acctest.isp0_dma.dma::system.membus.slave[7]         1060                       # Packet count per connected master and slave (bytes)
system.acctest.coherency_bus.pkt_count::total        67646                       # Packet count per connected master and slave (bytes)
system.acctest.coherency_bus.pkt_size_system.acctest.canny_non_max0_dma.dma::system.membus.slave[7]        65536                       # Cumulative packet size per connected master and slave (bytes)
system.acctest.coherency_bus.pkt_size_system.acctest.convolution0_dma.dma::system.membus.slave[7]       852512                       # Cumulative packet size per connected master and slave (bytes)
system.acctest.coherency_bus.pkt_size_system.acctest.edge_tracking0_dma.dma::system.membus.slave[7]        16384                       # Cumulative packet size per connected master and slave (bytes)
system.acctest.coherency_bus.pkt_size_system.acctest.elem_matrix0_dma.dma::system.membus.slave[7]      1114116                       # Cumulative packet size per connected master and slave (bytes)
system.acctest.coherency_bus.pkt_size_system.acctest.grayscale0_dma.dma::system.membus.slave[7]        65536                       # Cumulative packet size per connected master and slave (bytes)
system.acctest.coherency_bus.pkt_size_system.acctest.harris_non_max0_dma.dma::system.membus.slave[7]        16384                       # Cumulative packet size per connected master and slave (bytes)
system.acctest.coherency_bus.pkt_size_system.acctest.isp0_dma.dma::system.membus.slave[7]        33800                       # Cumulative packet size per connected master and slave (bytes)
system.acctest.coherency_bus.pkt_size::total      2164268                       # Cumulative packet size per connected master and slave (bytes)
system.acctest.coherency_bus.snoops                 0                       # Total snoops (count)
system.acctest.coherency_bus.snoopTraffic            0                       # Total snoop traffic (bytes)
system.acctest.coherency_bus.snoop_fanout::samples        43226                       # Request fanout histogram
system.acctest.coherency_bus.snoop_fanout::mean            0                       # Request fanout histogram
system.acctest.coherency_bus.snoop_fanout::stdev            0                       # Request fanout histogram
system.acctest.coherency_bus.snoop_fanout::underflows            0      0.00%      0.00% # Request fanout histogram
system.acctest.coherency_bus.snoop_fanout::0        43226    100.00%    100.00% # Request fanout histogram
system.acctest.coherency_bus.snoop_fanout::overflows            0      0.00%    100.00% # Request fanout histogram
system.acctest.coherency_bus.snoop_fanout::min_value            0                       # Request fanout histogram
system.acctest.coherency_bus.snoop_fanout::max_value            0                       # Request fanout histogram
system.acctest.coherency_bus.snoop_fanout::total        43226                       # Request fanout histogram
system.acctest.coherency_bus.reqLayer0.occupancy    114089000                       # Layer occupancy (ticks)
system.acctest.coherency_bus.reqLayer0.utilization          1.1                       # Layer utilization (%)
system.acctest.coherency_bus.respLayer0.occupancy    105610000                       # Layer occupancy (ticks)
system.acctest.coherency_bus.respLayer0.utilization          1.1                       # Layer utilization (%)
system.acctest.convolution0_spm.pwrStateResidencyTicks::UNDEFINED  10048027500                       # Cumulative time (in ticks) in various power states
system.acctest.convolution0_spm.bytes_read::.acctest.convolution0.system.acctest.convolution0     17532160                       # Number of bytes read from this memory
system.acctest.convolution0_spm.bytes_read::.acctest.convolution0_dma       458752                       # Number of bytes read from this memory
system.acctest.convolution0_spm.bytes_read::.acctest.elem_matrix0_dma       393216                       # Number of bytes read from this memory
system.acctest.convolution0_spm.bytes_read::total     18384128                       # Number of bytes read from this memory
system.acctest.convolution0_spm.bytes_written::.acctest.convolution0.system.acctest.convolution0       524288                       # Number of bytes written to this memory
system.acctest.convolution0_spm.bytes_written::.acctest.convolution0_dma       459296                       # Number of bytes written to this memory
system.acctest.convolution0_spm.bytes_written::total       983584                       # Number of bytes written to this memory
system.acctest.convolution0_spm.num_reads::.acctest.convolution0.system.acctest.convolution0      4383040                       # Number of read requests responded to by this memory
system.acctest.convolution0_spm.num_reads::.acctest.convolution0_dma        14336                       # Number of read requests responded to by this memory
system.acctest.convolution0_spm.num_reads::.acctest.elem_matrix0_dma        12288                       # Number of read requests responded to by this memory
system.acctest.convolution0_spm.num_reads::total      4409664                       # Number of read requests responded to by this memory
system.acctest.convolution0_spm.num_writes::.acctest.convolution0.system.acctest.convolution0       131072                       # Number of write requests responded to by this memory
system.acctest.convolution0_spm.num_writes::.acctest.convolution0_dma        14360                       # Number of write requests responded to by this memory
system.acctest.convolution0_spm.num_writes::total       145432                       # Number of write requests responded to by this memory
system.acctest.convolution0_spm.bw_read::.acctest.convolution0.system.acctest.convolution0   1748472721                       # Total read bandwidth from this memory (bytes/s)
system.acctest.convolution0_spm.bw_read::.acctest.convolution0_dma     45751086                       # Total read bandwidth from this memory (bytes/s)
system.acctest.convolution0_spm.bw_read::.acctest.elem_matrix0_dma     39215216                       # Total read bandwidth from this memory (bytes/s)
system.acctest.convolution0_spm.bw_read::total   1833439024                       # Total read bandwidth from this memory (bytes/s)
system.acctest.convolution0_spm.bw_write::.acctest.convolution0.system.acctest.convolution0     52286955                       # Write bandwidth from this memory (bytes/s)
system.acctest.convolution0_spm.bw_write::.acctest.convolution0_dma     45805339                       # Write bandwidth from this memory (bytes/s)
system.acctest.convolution0_spm.bw_write::total     98092294                       # Write bandwidth from this memory (bytes/s)
system.acctest.convolution0_spm.bw_total::.acctest.convolution0.system.acctest.convolution0   1800759677                       # Total bandwidth to/from this memory (bytes/s)
system.acctest.convolution0_spm.bw_total::.acctest.convolution0_dma     91556425                       # Total bandwidth to/from this memory (bytes/s)
system.acctest.convolution0_spm.bw_total::.acctest.elem_matrix0_dma     39215216                       # Total bandwidth to/from this memory (bytes/s)
system.acctest.convolution0_spm.bw_total::total   1931531318                       # Total bandwidth to/from this memory (bytes/s)
system.acctest.elem_matrix0_dma.pwrStateResidencyTicks::UNDEFINED  10048027500                       # Cumulative time (in ticks) in various power states
system.acctest.grayscale0.pwrStateResidencyTicks::UNDEFINED  10048027500                       # Cumulative time (in ticks) in various power states
system.acctest.canny_non_max0.pwrStateResidencyTicks::UNDEFINED  10048027500                       # Cumulative time (in ticks) in various power states
system.acctest.elem_matrix0_spm.pwrStateResidencyTicks::UNDEFINED  10048027500                       # Cumulative time (in ticks) in various power states
system.acctest.elem_matrix0_spm.bytes_read::.acctest.canny_non_max0_dma        65536                       # Number of bytes read from this memory
system.acctest.elem_matrix0_spm.bytes_read::.acctest.elem_matrix0.system.acctest.elem_matrix0      1441796                       # Number of bytes read from this memory
system.acctest.elem_matrix0_spm.bytes_read::.acctest.elem_matrix0_dma       458752                       # Number of bytes read from this memory
system.acctest.elem_matrix0_spm.bytes_read::.acctest.harris_non_max0_dma        65536                       # Number of bytes read from this memory
system.acctest.elem_matrix0_spm.bytes_read::total      2031620                       # Number of bytes read from this memory
system.acctest.elem_matrix0_spm.bytes_written::.acctest.elem_matrix0.system.acctest.elem_matrix0       983040                       # Number of bytes written to this memory
system.acctest.elem_matrix0_spm.bytes_written::.acctest.elem_matrix0_dma      1048580                       # Number of bytes written to this memory
system.acctest.elem_matrix0_spm.bytes_written::total      2031620                       # Number of bytes written to this memory
system.acctest.elem_matrix0_spm.num_reads::.acctest.canny_non_max0_dma         2048                       # Number of read requests responded to by this memory
system.acctest.elem_matrix0_spm.num_reads::.acctest.elem_matrix0.system.acctest.elem_matrix0       360449                       # Number of read requests responded to by this memory
system.acctest.elem_matrix0_spm.num_reads::.acctest.elem_matrix0_dma        14336                       # Number of read requests responded to by this memory
system.acctest.elem_matrix0_spm.num_reads::.acctest.harris_non_max0_dma         2048                       # Number of read requests responded to by this memory
system.acctest.elem_matrix0_spm.num_reads::total       378881                       # Number of read requests responded to by this memory
system.acctest.elem_matrix0_spm.num_writes::.acctest.elem_matrix0.system.acctest.elem_matrix0       245760                       # Number of write requests responded to by this memory
system.acctest.elem_matrix0_spm.num_writes::.acctest.elem_matrix0_dma        32769                       # Number of write requests responded to by this memory
system.acctest.elem_matrix0_spm.num_writes::total       278529                       # Number of write requests responded to by this memory
system.acctest.elem_matrix0_spm.bw_read::.acctest.canny_non_max0_dma      6535869                       # Total read bandwidth from this memory (bytes/s)
system.acctest.elem_matrix0_spm.bw_read::.acctest.elem_matrix0.system.acctest.elem_matrix0    143789526                       # Total read bandwidth from this memory (bytes/s)
system.acctest.elem_matrix0_spm.bw_read::.acctest.elem_matrix0_dma     45751086                       # Total read bandwidth from this memory (bytes/s)
system.acctest.elem_matrix0_spm.bw_read::.acctest.harris_non_max0_dma      6535869                       # Total read bandwidth from this memory (bytes/s)
system.acctest.elem_matrix0_spm.bw_read::total    202612351                       # Total read bandwidth from this memory (bytes/s)
system.acctest.elem_matrix0_spm.bw_write::.acctest.elem_matrix0.system.acctest.elem_matrix0     98038041                       # Write bandwidth from this memory (bytes/s)
system.acctest.elem_matrix0_spm.bw_write::.acctest.elem_matrix0_dma    104574310                       # Write bandwidth from this memory (bytes/s)
system.acctest.elem_matrix0_spm.bw_write::total    202612351                       # Write bandwidth from this memory (bytes/s)
system.acctest.elem_matrix0_spm.bw_total::.acctest.canny_non_max0_dma      6535869                       # Total bandwidth to/from this memory (bytes/s)
system.acctest.elem_matrix0_spm.bw_total::.acctest.elem_matrix0.system.acctest.elem_matrix0    241827567                       # Total bandwidth to/from this memory (bytes/s)
system.acctest.elem_matrix0_spm.bw_total::.acctest.elem_matrix0_dma    150325395                       # Total bandwidth to/from this memory (bytes/s)
system.acctest.elem_matrix0_spm.bw_total::.acctest.harris_non_max0_dma      6535869                       # Total bandwidth to/from this memory (bytes/s)
system.acctest.elem_matrix0_spm.bw_total::total    405224701                       # Total bandwidth to/from this memory (bytes/s)
system.acctest.convolution0_dma.pwrStateResidencyTicks::UNDEFINED  10048027500                       # Cumulative time (in ticks) in various power states
system.acctest.convolution1_spm.pwrStateResidencyTicks::UNDEFINED  10048027500                       # Cumulative time (in ticks) in various power states
system.acctest.elem_matrix3_dma.pwrStateResidencyTicks::UNDEFINED  10048027500                       # Cumulative time (in ticks) in various power states
system.acctest.edge_tracking0_spm.pwrStateResidencyTicks::UNDEFINED  10048027500                       # Cumulative time (in ticks) in various power states
system.acctest.edge_tracking0_spm.bytes_read::.acctest.edge_tracking0.system.acctest.edge_tracking0       194576                       # Number of bytes read from this memory
[...]
system.cpu.icache.tags.sampled_refs               498                       # Sample count of references to valid blocks.
system.cpu.icache.tags.avg_refs            293.845382                       # Average number of references to valid blocks.
system.cpu.icache.tags.warmup_cycle                 0                       # Cycle when the warmup percentage was hit.
system.cpu.icache.tags.occ_blocks::.cpu.inst   413.199607                       # Average occupied blocks per requestor
system.cpu.icache.tags.occ_percent::.cpu.inst     0.807030                       # Average percentage of cache occupancy
system.cpu.icache.tags.occ_percent::total     0.807030                       # Average percentage of cache occupancy
system.cpu.icache.tags.occ_task_id_blocks::1024          451                       # Occupied blocks per task id
system.cpu.icache.tags.age_task_id_blocks_1024::0            4                       # Occupied blocks per task id
system.cpu.icache.tags.age_task_id_blocks_1024::2           20                       # Occupied blocks per task id
system.cpu.icache.tags.age_task_id_blocks_1024::3          203                       # Occupied blocks per task id
system.cpu.icache.tags.age_task_id_blocks_1024::4          224                       # Occupied blocks per task id
system.cpu.icache.tags.occ_task_id_percent::1024     0.880859                       # Percentage of cache occupancy per task id
system.cpu.icache.tags.tag_accesses            287239                       # Number of tag accesses
system.cpu.icache.tags.data_accesses           287239                       # Number of data accesses
system.cpu.dtb.walker.pwrStateResidencyTicks::UNDEFINED  10048196250                       # Cumulative time (in ticks) in various power states
system.cpu.dtb.stage2_mmu.stage2_tlb.walker.pwrStateResidencyTicks::UNDEFINED  10048196250                       # Cumulative time (in ticks) in various power states
system.cpu.dcache.pwrStateResidencyTicks::UNDEFINED  10048196250                       # Cumulative time (in ticks) in various power states
system.cpu.dcache.demand_hits::.cpu.data        28817                       # number of demand (read+write) hits
system.cpu.dcache.demand_hits::total            28817                       # number of demand (read+write) hits
system.cpu.dcache.overall_hits::.cpu.data        28817                       # number of overall hits
system.cpu.dcache.overall_hits::total           28817                       # number of overall hits
system.cpu.dcache.demand_misses::.cpu.data           53                       # number of demand (read+write) misses
system.cpu.dcache.demand_misses::total             53                       # number of demand (read+write) misses
system.cpu.dcache.overall_misses::.cpu.data           53                       # number of overall misses
system.cpu.dcache.overall_misses::total            53                       # number of overall misses
system.cpu.dcache.demand_miss_latency::.cpu.data      3517750                       # number of demand (read+write) miss cycles
system.cpu.dcache.demand_miss_latency::total      3517750                       # number of demand (read+write) miss cycles
system.cpu.dcache.overall_miss_latency::.cpu.data      3517750                       # number of overall miss cycles
system.cpu.dcache.overall_miss_latency::total      3517750                       # number of overall miss cycles
system.cpu.dcache.demand_accesses::.cpu.data        28870                       # number of demand (read+write) accesses
system.cpu.dcache.demand_accesses::total        28870                       # number of demand (read+write) accesses
system.cpu.dcache.overall_accesses::.cpu.data        28870                       # number of overall (read+write) accesses
system.cpu.dcache.overall_accesses::total        28870                       # number of overall (read+write) accesses
system.cpu.dcache.demand_miss_rate::.cpu.data     0.001836                       # miss rate for demand accesses
system.cpu.dcache.demand_miss_rate::total     0.001836                       # miss rate for demand accesses
system.cpu.dcache.overall_miss_rate::.cpu.data     0.001836                       # miss rate for overall accesses
system.cpu.dcache.overall_miss_rate::total     0.001836                       # miss rate for overall accesses
system.cpu.dcache.demand_avg_miss_latency::.cpu.data 66372.641509                       # average overall miss latency
system.cpu.dcache.demand_avg_miss_latency::total 66372.641509                       # average overall miss latency
system.cpu.dcache.overall_avg_miss_latency::.cpu.data 66372.641509                       # average overall miss latency
system.cpu.dcache.overall_avg_miss_latency::total 66372.641509                       # average overall miss latency
system.cpu.dcache.blocked_cycles::no_mshrs            0                       # number of cycles access was blocked
system.cpu.dcache.blocked_cycles::no_targets            0                       # number of cycles access was blocked
system.cpu.dcache.blocked::no_mshrs                 0                       # number of cycles access was blocked
system.cpu.dcache.blocked::no_targets               0                       # number of cycles access was blocked
system.cpu.dcache.avg_blocked_cycles::no_mshrs          nan                       # average number of cycles each access was blocked
system.cpu.dcache.avg_blocked_cycles::no_targets          nan                       # average number of cycles each access was blocked
system.cpu.dcache.writebacks::.writebacks            8                       # number of writebacks
system.cpu.dcache.writebacks::total                 8                       # number of writebacks
system.cpu.dcache.demand_mshr_hits::.cpu.data            6                       # number of demand (read+write) MSHR hits
system.cpu.dcache.demand_mshr_hits::total            6                       # number of demand (read+write) MSHR hits
system.cpu.dcache.overall_mshr_hits::.cpu.data            6                       # number of overall MSHR hits
system.cpu.dcache.overall_mshr_hits::total            6                       # number of overall MSHR hits
system.cpu.dcache.demand_mshr_misses::.cpu.data           47                       # number of demand (read+write) MSHR misses
system.cpu.dcache.demand_mshr_misses::total           47                       # number of demand (read+write) MSHR misses
system.cpu.dcache.overall_mshr_misses::.cpu.data           47                       # number of overall MSHR misses
system.cpu.dcache.overall_mshr_misses::total           47                       # number of overall MSHR misses
system.cpu.dcache.overall_mshr_uncacheable_misses::.cpu.data          845                       # number of overall MSHR uncacheable misses
system.cpu.dcache.overall_mshr_uncacheable_misses::total          845                       # number of overall MSHR uncacheable misses
system.cpu.dcache.demand_mshr_miss_latency::.cpu.data      3089250                       # number of demand (read+write) MSHR miss cycles
system.cpu.dcache.demand_mshr_miss_latency::total      3089250                       # number of demand (read+write) MSHR miss cycles
system.cpu.dcache.overall_mshr_miss_latency::.cpu.data      3089250                       # number of overall MSHR miss cycles
system.cpu.dcache.overall_mshr_miss_latency::total      3089250                       # number of overall MSHR miss cycles
system.cpu.dcache.overall_mshr_uncacheable_latency::.cpu.data      1891625                       # number of overall MSHR uncacheable cycles
system.cpu.dcache.overall_mshr_uncacheable_latency::total      1891625                       # number of overall MSHR uncacheable cycles
system.cpu.dcache.demand_mshr_miss_rate::.cpu.data     0.001628                       # mshr miss rate for demand accesses
system.cpu.dcache.demand_mshr_miss_rate::total     0.001628                       # mshr miss rate for demand accesses
system.cpu.dcache.overall_mshr_miss_rate::.cpu.data     0.001628                       # mshr miss rate for overall accesses
system.cpu.dcache.overall_mshr_miss_rate::total     0.001628                       # mshr miss rate for overall accesses
system.cpu.dcache.demand_avg_mshr_miss_latency::.cpu.data 65728.723404                       # average overall mshr miss latency
system.cpu.dcache.demand_avg_mshr_miss_latency::total 65728.723404                       # average overall mshr miss latency
system.cpu.dcache.overall_avg_mshr_miss_latency::.cpu.data 65728.723404                       # average overall mshr miss latency
system.cpu.dcache.overall_avg_mshr_miss_latency::total 65728.723404                       # average overall mshr miss latency
system.cpu.dcache.overall_avg_mshr_uncacheable_latency::.cpu.data  2238.609467                       # average overall mshr uncacheable latency
system.cpu.dcache.overall_avg_mshr_uncacheable_latency::total  2238.609467                       # average overall mshr uncacheable latency
system.cpu.dcache.replacements                      9                       # number of replacements
system.cpu.dcache.ReadReq_hits::.cpu.data        18029                       # number of ReadReq hits
system.cpu.dcache.ReadReq_hits::total           18029                       # number of ReadReq hits
system.cpu.dcache.ReadReq_misses::.cpu.data           28                       # number of ReadReq misses
system.cpu.dcache.ReadReq_misses::total            28                       # number of ReadReq misses
system.cpu.dcache.ReadReq_miss_latency::.cpu.data      1383750                       # number of ReadReq miss cycles
system.cpu.dcache.ReadReq_miss_latency::total      1383750                       # number of ReadReq miss cycles
system.cpu.dcache.ReadReq_accesses::.cpu.data        18057                       # number of ReadReq accesses(hits+misses)
system.cpu.dcache.ReadReq_accesses::total        18057                       # number of ReadReq accesses(hits+misses)
system.cpu.dcache.ReadReq_miss_rate::.cpu.data     0.001551                       # miss rate for ReadReq accesses
system.cpu.dcache.ReadReq_miss_rate::total     0.001551                       # miss rate for ReadReq accesses
system.cpu.dcache.ReadReq_avg_miss_latency::.cpu.data 49419.642857                       # average ReadReq miss latency
system.cpu.dcache.ReadReq_avg_miss_latency::total 49419.642857                       # average ReadReq miss latency
system.cpu.dcache.ReadReq_mshr_misses::.cpu.data           28                       # number of ReadReq MSHR misses
system.cpu.dcache.ReadReq_mshr_misses::total           28                       # number of ReadReq MSHR misses
system.cpu.dcache.ReadReq_mshr_uncacheable::.cpu.data           87                       # number of ReadReq MSHR uncacheable
system.cpu.dcache.ReadReq_mshr_uncacheable::total           87                       # number of ReadReq MSHR uncacheable
system.cpu.dcache.ReadReq_mshr_miss_latency::.cpu.data      1342875                       # number of ReadReq MSHR miss cycles
system.cpu.dcache.ReadReq_mshr_miss_latency::total      1342875                       # number of ReadReq MSHR miss cycles
system.cpu.dcache.ReadReq_mshr_uncacheable_latency::.cpu.data      1891625                       # number of ReadReq MSHR uncacheable cycles
system.cpu.dcache.ReadReq_mshr_uncacheable_latency::total      1891625                       # number of ReadReq MSHR uncacheable cycles
system.cpu.dcache.ReadReq_mshr_miss_rate::.cpu.data     0.001551                       # mshr miss rate for ReadReq accesses
system.cpu.dcache.ReadReq_mshr_miss_rate::total     0.001551                       # mshr miss rate for ReadReq accesses
system.cpu.dcache.ReadReq_avg_mshr_miss_latency::.cpu.data 47959.821429                       # average ReadReq mshr miss latency
system.cpu.dcache.ReadReq_avg_mshr_miss_latency::total 47959.821429                       # average ReadReq mshr miss latency
system.cpu.dcache.ReadReq_avg_mshr_uncacheable_latency::.cpu.data 21742.816092                       # average ReadReq mshr uncacheable latency
system.cpu.dcache.ReadReq_avg_mshr_uncacheable_latency::total 21742.816092                       # average ReadReq mshr uncacheable latency
system.cpu.dcache.WriteReq_hits::.cpu.data        10788                       # number of WriteReq hits
system.cpu.dcache.WriteReq_hits::total          10788                       # number of WriteReq hits
system.cpu.dcache.WriteReq_misses::.cpu.data           25                       # number of WriteReq misses
system.cpu.dcache.WriteReq_misses::total           25                       # number of WriteReq misses
system.cpu.dcache.WriteReq_miss_latency::.cpu.data      2134000                       # number of WriteReq miss cycles
system.cpu.dcache.WriteReq_miss_latency::total      2134000                       # number of WriteReq miss cycles
system.cpu.dcache.WriteReq_accesses::.cpu.data        10813                       # number of WriteReq accesses(hits+misses)
system.cpu.dcache.WriteReq_accesses::total        10813                       # number of WriteReq accesses(hits+misses)
system.cpu.dcache.WriteReq_miss_rate::.cpu.data     0.002312                       # miss rate for WriteReq accesses
system.cpu.dcache.WriteReq_miss_rate::total     0.002312                       # miss rate for WriteReq accesses
system.cpu.dcache.WriteReq_avg_miss_latency::.cpu.data        85360                       # average WriteReq miss latency
system.cpu.dcache.WriteReq_avg_miss_latency::total        85360                       # average WriteReq miss latency
system.cpu.dcache.WriteReq_mshr_hits::.cpu.data            6                       # number of WriteReq MSHR hits
system.cpu.dcache.WriteReq_mshr_hits::total            6                       # number of WriteReq MSHR hits
system.cpu.dcache.WriteReq_mshr_misses::.cpu.data           19                       # number of WriteReq MSHR misses
system.cpu.dcache.WriteReq_mshr_misses::total           19                       # number of WriteReq MSHR misses
system.cpu.dcache.WriteReq_mshr_uncacheable::.cpu.data          758                       # number of WriteReq MSHR uncacheable
system.cpu.dcache.WriteReq_mshr_uncacheable::total          758                       # number of WriteReq MSHR uncacheable
system.cpu.dcache.WriteReq_mshr_miss_latency::.cpu.data      1746375                       # number of WriteReq MSHR miss cycles
system.cpu.dcache.WriteReq_mshr_miss_latency::total      1746375                       # number of WriteReq MSHR miss cycles
system.cpu.dcache.WriteReq_mshr_miss_rate::.cpu.data     0.001757                       # mshr miss rate for WriteReq accesses
system.cpu.dcache.WriteReq_mshr_miss_rate::total     0.001757                       # mshr miss rate for WriteReq accesses
system.cpu.dcache.WriteReq_avg_mshr_miss_latency::.cpu.data 91914.473684                       # average WriteReq mshr miss latency
system.cpu.dcache.WriteReq_avg_mshr_miss_latency::total 91914.473684                       # average WriteReq mshr miss latency
system.cpu.dcache.CleanInvalidReq_mshr_misses::.cpu.data        33823                       # number of CleanInvalidReq MSHR misses
system.cpu.dcache.CleanInvalidReq_mshr_misses::total        33823                       # number of CleanInvalidReq MSHR misses
system.cpu.dcache.CleanInvalidReq_mshr_miss_latency::.cpu.data    353625875                       # number of CleanInvalidReq MSHR miss cycles
system.cpu.dcache.CleanInvalidReq_mshr_miss_latency::total    353625875                       # number of CleanInvalidReq MSHR miss cycles
system.cpu.dcache.CleanInvalidReq_mshr_miss_rate::.cpu.data          inf                       # mshr miss rate for CleanInvalidReq accesses
system.cpu.dcache.CleanInvalidReq_mshr_miss_rate::total          inf                       # mshr miss rate for CleanInvalidReq accesses
system.cpu.dcache.CleanInvalidReq_avg_mshr_miss_latency::.cpu.data 10455.189516                       # average CleanInvalidReq mshr miss latency
system.cpu.dcache.CleanInvalidReq_avg_mshr_miss_latency::total 10455.189516                       # average CleanInvalidReq mshr miss latency
system.cpu.dcache.InvalidateReq_mshr_hits::.cpu.data         6146                       # number of InvalidateReq MSHR hits
system.cpu.dcache.InvalidateReq_mshr_hits::total         6146                       # number of InvalidateReq MSHR hits
system.cpu.dcache.InvalidateReq_mshr_misses::.cpu.data        27677                       # number of InvalidateReq MSHR misses
system.cpu.dcache.InvalidateReq_mshr_misses::total        27677                       # number of InvalidateReq MSHR misses
system.cpu.dcache.InvalidateReq_mshr_miss_latency::.cpu.data    341403040                       # number of InvalidateReq MSHR miss cycles
system.cpu.dcache.InvalidateReq_mshr_miss_latency::total    341403040                       # number of InvalidateReq MSHR miss cycles
system.cpu.dcache.InvalidateReq_mshr_miss_rate::.cpu.data          inf                       # mshr miss rate for InvalidateReq accesses
system.cpu.dcache.InvalidateReq_mshr_miss_rate::total          inf                       # mshr miss rate for InvalidateReq accesses
system.cpu.dcache.InvalidateReq_avg_mshr_miss_latency::.cpu.data 12335.261770                       # average InvalidateReq mshr miss latency
system.cpu.dcache.InvalidateReq_avg_mshr_miss_latency::total 12335.261770                       # average InvalidateReq mshr miss latency
system.cpu.dcache.tags.pwrStateResidencyTicks::UNDEFINED  10048196250                       # Cumulative time (in ticks) in various power states
system.cpu.dcache.tags.tagsinuse           207.216175                       # Cycle average of tags in use
system.cpu.dcache.tags.total_refs               31773                       # Total number of references to valid blocks.
system.cpu.dcache.tags.sampled_refs               226                       # Sample count of references to valid blocks.
system.cpu.dcache.tags.avg_refs            140.588496                       # Average number of references to valid blocks.
system.cpu.dcache.tags.warmup_cycle                 0                       # Cycle when the warmup percentage was hit.
system.cpu.dcache.tags.occ_blocks::.cpu.data   207.216175                       # Average occupied blocks per requestor
system.cpu.dcache.tags.occ_percent::.cpu.data     0.404719                       # Average percentage of cache occupancy
system.cpu.dcache.tags.occ_percent::total     0.404719                       # Average percentage of cache occupancy
system.cpu.dcache.tags.occ_task_id_blocks::1024          208                       # Occupied blocks per task id
system.cpu.dcache.tags.age_task_id_blocks_1024::0            2                       # Occupied blocks per task id
system.cpu.dcache.tags.age_task_id_blocks_1024::2            3                       # Occupied blocks per task id
system.cpu.dcache.tags.age_task_id_blocks_1024::3           24                       # Occupied blocks per task id
system.cpu.dcache.tags.age_task_id_blocks_1024::4          179                       # Occupied blocks per task id
system.cpu.dcache.tags.occ_task_id_percent::1024     0.406250                       # Percentage of cache occupancy per task id
system.cpu.dcache.tags.tag_accesses            386111                       # Number of tag accesses
system.cpu.dcache.tags.data_accesses           386111                       # Number of data accesses
system.cpu.itb.walker.pwrStateResidencyTicks::UNDEFINED  10048196250                       # Cumulative time (in ticks) in various power states
system.cpu.itb.stage2_mmu.stage2_tlb.walker.pwrStateResidencyTicks::UNDEFINED  10048196250                       # Cumulative time (in ticks) in various power states

---------- End Simulation Statistics   ----------
