gem5 Simulator System.  http://gem5.org
gem5 is copyrighted software; use the --copyright option for details.

gem5 compiled Jun 12 2023 18:40:01
gem5 started Jul 15 2023 00:22:06
gem5 executing on node4x10a.cs.rochester.edu, pid 71510
command line: /u/sgupta45/gem5-SALAM/build/ARM/gem5_bus.opt --debug-flags=HWACC,CommInterface,LLVMInterface,StreamDma,NoncoherentDma,TickTimer,SchedulerStats --outdir=BM_ARM_OUT/comb_4/canny_1_deblur_1_gru_1_harris_0_lstm_1_FCFS configs/SALAM/scheduler.py --mem-size=4GB --mem-type=LPDDR5_6400_1x16_BG_BL32 --kernel=/u/sgupta45/gem5-SALAM/benchmarks/scheduler/sw/bin_comb_4/canny_1_deblur_1_gru_1_harris_0_lstm_1_FCFS.elf --vans-config-path=/u/sgupta45/VANS/config --disk-image=/u/sgupta45/gem5-SALAM/baremetal/common/fake.iso --machine-type=VExpress_GEM5_V1 --dtb-file=none --bare-metal --cpu-type=ex5_LITTLE --cpu-clock=1.6GHz --accpath=/u/sgupta45/gem5-SALAM/benchmarks --caches --cacheline_size=64 --l1d_size=32kB --l1d_assoc=4 --l1i_size=32kB --l1i_assoc=2

Global frequency set at 1000000000000 ticks per second
Cycle Counts Loaded!
Cycle Counts Loaded!
Cycle Counts Loaded!
Cycle Counts Loaded!
Cycle Counts Loaded!
Cycle Counts Loaded!
Cycle Counts Loaded!
Cycle Counts Loaded!
Cycle Counts Loaded!
Cycle Counts Loaded!
Cycle Counts Loaded!
**** REAL SIMULATION ****
7222245625: global: Timer #2 started at tick 7222245625
7222582500: global: Timer #2 stopped at tick 7222582500. Duration: 336875
7226727500: global: Timer #2 started at tick 7226727500
7226767500: global: Timer #2 stopped at tick 7226767500. Duration: 40000
7233081875: global: Timer #2 started at tick 7233081875
7233113125: global: Timer #2 stopped at tick 7233113125. Duration: 31250
7265088750: global: Timer #2 started at tick 7265088750
7265260000: global: Timer #2 stopped at tick 7265260000. Duration: 171250
7315699500: system.acctest.elem_matrix0_dma: SRC:0x0000000082290bc0, DST:0x0000000024000020, LEN:65536
7321463750: system.acctest.isp0_dma: SRC:0x0000000082018d40, DST:0x0000000027000020, LEN:16900
7321979375: global: Number of accelerators running = 2
7325117750: system.acctest.isp0_dma: Transfer completed in 3.654 us
7325990000: global: Timer #0 started at tick 7325990000
7327713750: global: Timer #0 stopped at tick 7327713750. Duration: 1723750
7327732500: global: Number of accelerators running = 2
7328457500: system.acctest.elem_matrix0_dma: Transfer completed in 12.758 us
7328594375: global: Timer #0 started at tick 7328594375
7342642375: system.acctest.elem_matrix0_dma: SRC:0x0000000082190a00, DST:0x0000000024010020, LEN:65536
7342966250: global: Timer #0 stopped at tick 7342966250. Duration: 14371875
7342982500: global: Number of accelerators running = 2
7354647375: system.acctest.elem_matrix0_dma: Transfer completed in 12.005 us
7354722500: global: Timer #0 started at tick 7354722500
7356133125: global: Timer #0 stopped at tick 7356133125. Duration: 1410625
7356149375: global: Number of accelerators running = 2
********************************************************************************
system.acctest.isp0.compute
   ========= Performance Analysis =============
   Setup Time:                      0.154693seconds
   Simulation Time:                 511.991seconds
   System Clock:                    1GHz
   Transistor Latency:              1ns
   Runtime:                         34882 cycles
   Runtime:                         34.882 us
   Stalls:                          1 cycles
   Executed Nodes:                  34880 cycles

********************************************************************************
   ========= Performance Analysis =================
   Setup Time:                      1.54693e+08ns
   Simulation Time:                 5.11991e+11ns
   System Clock:                    1GHz
   Transistor Latency:              0ns
   Runtime:                         34882 cycles
   Runtime:                         3.4882e-06 seconds
   Stalls:                          1 cycles
       Load Only:                   0 cycles
       Store Only:                  1 cycles
       Compute Only:                0 cycles
       Compute & Store:             0 cycles
       Load & Store:                0 cycles
       Load & Compute:              0 cycles
       Load & Compute & Store:      0 cycles
   Executed Nodes:                  34880 cycles
       Load Only:                   0 cycles
       Store Only:                  1 cycles
       Compute Only:                3453 cycles
       Compute & Store:             19014 cycles
       Load & Store:                0 cycles
       Load & Compute:              2467 cycles
       Load & Compute & Store:      9945 cycles

   ========= Runtime FU's ========= (Max | Avg) ===
   Counter FU's:                      10 | 0.118075
   Integer Add/Sub FU's:              76 | 0.082082
   Integer Mul/Div FU's:              11 | 0.043888
   Integer Shifter FU's:              42 | 0.055974
   Integer Bitwise FU's:               4 | 0.059443
   Floating Point Float Add/Sub:      53 | 0.116839
   Floating Point Double Add/Sub:      0 | 0.000000
   Floating Point Float Mul/Div:      76 | 0.625626
   Floating Point Double Mul/Div:      0 | 0.000000
   0 Cycle Compare FU's:              85 | 0.664984
   GEP Instruction FU's:              33 | 0.117424
   Type Conversion FU's:             110 | 0.379700

   ========= Static FU's ==========================
   Counter FU's:                    0
   Integer Add/Sub FU's:            0
   Integer Mul/Div FU's:            0
   Integer Shifter FU's:            0
   Integer Bitwise FU's:            0
   Floating Point Float Add/Sub:    0
   Floating Point Double Add/Sub:   0
   Floating Point Float Mul/Div:    0
   Floating Point Double Mul/Div:   0
   0 Cycle Compare FU's:            0
   GEP Instruction FU's:            0
   Type Conversion FU's:            0
   Other:                           0

   ========= Pipeline Register Usage =============
   Total Number of Registers:       1620
   Max Register Usage Per Cycle:    151
   Avg Register Usage Per Cycle:    58.744711
   Avg Register Size (Bytes):       5.073357

   ========= Memory Configuration =================
   Cache Bus Ports:                 0
   Shared Cache Size:               0kB
   Local Bus Ports:                 0
   Private SPM Size:                112kB
   Private Read Ports:              0
   Private Write Ports:             0
   Private Read Bus Width:          64
   Private Write Bus Width:         64
       Memory Reads:                0
       Memory Writes:               0
   ========= Power Analysis ======================
   FU Leakage Power:                1.637787 mW 
   FU Dynamic Power:                9.655087 mW 
   FU Total Power:                  11.292874 mW 

   Registers Leakage Power:          0.021654 mW 
   Registers Dynamic Power:          3.085961 mW 
       Register Reads (Bits):        2049133
       Register Writes (Bits):       2049168
   Registers Total Power:            3.107615 mW

   SPM Leakage Power:               0.061081 mW
   SPM Read Dynamic Power:          11.103730 mW
   SPM Write Dynamic Power:         7.385230 mW
   SPM Total Power:                 18.550041 mW

   Cache Leakage Power:             0.000000 mW
   Cache Read Dynamic Power:        0.000000 mW
   Cache Write Dynamic Power:       0.000000 mW
   Cache Total Power:               0.000000 mW

   Accelerator Power:               14.400490 mW
   Accelerator Power (SPM):         32.950531 mW
   Accelerator Power (Cache):       14.400490 mW

   ========= Area Analysis =======================
   FU Area:                         176023.796875 um^2 (0.176024 mm^2)
   Register Area:                   1760.064941 um^2 (0.001760 mm^2)
   SPM Area:                        2165.394891 um^2 (0.002165 mm^2)
   Cache Area:                      0.000000 um^2 (0.000000 mm^2)

   Accelerator Area:                177783.859375 um^2 (0.177784 mm^2)
   Accelerator Area (SPM):          179949.254266 um^2 (0.179949 mm^2)
   Accelerator Area (Cache):        177783.859375 um^2 (0.177784 mm^2)

   ========= SPM Resizing  =======================
   SPM Optimized Leakage Power:     0.005964 mW
   SPM Opt Area:                    422.108128 um^2

7362067500: global: Timer #0 started at tick 7362067500
7362537500: global: Timer #2 started at tick 7362537500
7362658125: global: Timer #2 stopped at tick 7362658125. Duration: 120625
7363428125: global: DAG ID = 0
7363447500: global: Node ID = 0
7363465625: global: Node deadline difference = -13501
7363527500: global: Predicted memory time / byte = 0 us/byte
7363545625: global: Predicted memory time = 0 us
7363563750: global: Predicted memory time / byte = 0 us/byte
7363581875: global: Predicted memory time = 0 us
7363600000: global: Predicted memory time / byte = 0 us/byte
7363661250: global: Predicted memory time = 0 us
7363679375: global: Predicted memory time / byte = 0 us/byte
7363697500: global: Predicted memory time = 0 us
7363715625: global: Predicted memory access size = 0
7363733750: global: Predicted memory access size = 16900
7363796250: global: Predicted memory access size = 0
7363815000: global: Predicted memory access size = 0
7365083750: system.acctest.grayscale0_dma: SRC:0x0000000027004224, DST:0x0000000025000020, LEN:49152
********************************************************************************
system.acctest.elem_matrix0.compute
   ========= Performance Analysis =============
   Setup Time:                      3.095676seconds
   Simulation Time:                 223.238183seconds
   System Clock:                    1.000000GHz
   Transistor Latency:              1ns
   Runtime:                         10932 cycles
   Runtime:                         10.932000 us
   Stalls:                          0 cycles
   Executed Nodes:                  10931 cycles

********************************************************************************
   ========= Performance Analysis =================
   Setup Time:                      3095676186.000000ns
   Simulation Time:                 223238182682.000000ns
   System Clock:                    1.000000GHz
   Transistor Latency:              0ns
   Runtime:                         10932 cycles
   Runtime:                         0.000001 seconds
   Stalls:                          0 cycles
       Load Only:                   0 cycles
       Store Only:                  0 cycles
       Compute Only:                0 cycles
       Compute & Store:             0 cycles
       Load & Store:                0 cycles
       Load & Compute:              0 cycles
       Load & Compute & Store:      0 cycles
   Executed Nodes:                  10931 cycles
       Load Only:                   0 cycles
       Store Only:                  5 cycles
       Compute Only:                1 cycles
       Compute & Store:             21 cycles
       Load & Store:                0 cycles
       Load & Compute:              7 cycles
       Load & Compute & Store:      10897 cycles

   ========= Runtime FU's ========= (Max | Avg) ===
   Counter FU's:                      32 | 0.046838
   Integer Add/Sub FU's:               0 | 0.000000
   Integer Mul/Div FU's:               0 | 0.000000
   Integer Shifter FU's:               0 | 0.000000
   Integer Bitwise FU's:               1 | 0.000091
   Floating Point Float Add/Sub:      34 | 0.044252
   Floating Point Double Add/Sub:      0 | 0.000000
   Floating Point Float Mul/Div:       0 | 0.000000
   Floating Point Double Mul/Div:      0 | 0.000000
   0 Cycle Compare FU's:             102 | 0.046974
   GEP Instruction FU's:              96 | 0.046835
   Type Conversion FU's:               7 | 0.006782

   ========= Static FU's ==========================
   Counter FU's:                    0
   Integer Add/Sub FU's:            0
   Integer Mul/Div FU's:            0
   Integer Shifter FU's:            0
   Integer Bitwise FU's:            0
   Floating Point Float Add/Sub:    0
   Floating Point Double Add/Sub:   0
   Floating Point Float Mul/Div:    0
   Floating Point Double Mul/Div:   0
   0 Cycle Compare FU's:            0
   GEP Instruction FU's:            0
   Type Conversion FU's:            0
   Other:                           0

   ========= Pipeline Register Usage =============
   Total Number of Registers:       5641
   Max Register Usage Per Cycle:    138
   Avg Register Usage Per Cycle:    12.130992
   Avg Register Size (Bytes):       5.980606

   ========= Memory Configuration =================
   Cache Bus Ports:                 0
   Shared Cache Size:               0kB
   Local Bus Ports:                 0
   Private SPM Size:                256kB
   Private Read Ports:              0
   Private Write Ports:             0
   Private Read Bus Width:          64
   Private Write Bus Width:         64
       Memory Reads:                0
       Memory Writes:               0
   ========= Power Analysis ======================
   FU Leakage Power:                0.519269 mW 
   FU Dynamic Power:                0.154621 mW 
   FU Total Power:                  0.673890 mW 

   Registers Leakage Power:          0.005281 mW 
   Registers Dynamic Power:          0.015326 mW 
       Register Reads (Bits):        132616
       Register Writes (Bits):       133658
   Registers Total Power:            0.020607 mW

   SPM Leakage Power:               0.104100 mW
   SPM Read Dynamic Power:          1.997266 mW
   SPM Write Dynamic Power:         0.953321 mW
   SPM Total Power:                 3.054688 mW

   Cache Leakage Power:             0.000000 mW
   Cache Read Dynamic Power:        0.000000 mW
   Cache Write Dynamic Power:       0.000000 mW
   Cache Total Power:               0.000000 mW

   Accelerator Power:               0.694497 mW
   Accelerator Power (SPM):         3.749184 mW
   Accelerator Power (Cache):       0.694497 mW

   ========= Area Analysis =======================
   FU Area:                         70212.562500 um^2 (0.070213 mm^2)
   Register Area:                   429.271088 um^2 (0.000429 mm^2)
   SPM Area:                        2177.365505 um^2 (0.002177 mm^2)
   Cache Area:                      0.000000 um^2 (0.000000 mm^2)

   Accelerator Area:                70641.835938 um^2 (0.070642 mm^2)
   Accelerator Area (SPM):          72819.201442 um^2 (0.072819 mm^2)
   Accelerator Area (Cache):        70641.835938 um^2 (0.070642 mm^2)

   ========= SPM Resizing  =======================
   SPM Optimized Leakage Power:     0.004248 mW
   SPM Opt Area:                    178.524902 um^2

7369983000: system.acctest.isp0_dma: SRC:0x000000008210e780, DST:0x0000000027000020, LEN:16900
7370185625: global: Timer #0 stopped at tick 7370185625. Duration: 8118125
7370201875: global: Number of accelerators running = 3
7370320000: global: Timer #0 started at tick 7370320000
7370746875: global: Timer #2 started at tick 7370746875
7370781875: global: Timer #2 stopped at tick 7370781875. Duration: 35000
7371074375: global: Timer #2 started at tick 7371074375
7371114375: global: Timer #2 stopped at tick 7371114375. Duration: 40000
7373308000: system.acctest.isp0_dma: Transfer completed in 3.325 us
7374645750: system.acctest.grayscale0_dma: Transfer completed in 9.562 us
7384650875: system.acctest.elem_matrix0_dma: SRC:0x0000000024020020, DST:0x00000000821a0a00, LEN:65536
7385104375: global: Timer #0 stopped at tick 7385104375. Duration: 14784375
7385120625: global: Number of accelerators running = 3
7385238125: global: Timer #0 started at tick 7385238125
7386101250: global: Timer #0 stopped at tick 7386101250. Duration: 863125
7386117500: global: Number of accelerators running = 3
7386247500: global: Timer #0 started at tick 7386247500
7387367500: global: Timer #0 stopped at tick 7387367500. Duration: 1120000
7387383750: global: Number of accelerators running = 3
7390948875: system.acctest.elem_matrix0_dma: Transfer completed in 6.298 us
7391035000: global: Timer #0 started at tick 7391035000
7391726250: global: DAG ID = 2
7391790000: global: Node ID = 0
7391864375: global: Node deadline difference = -2230
7391882500: global: Predicted memory time / byte = 0 us/byte
7391900625: global: Predicted memory time = 0 us
7391920625: global: Predicted memory time / byte = 0 us/byte
7391938750: global: Predicted memory time = 0 us
7391956875: global: Predicted memory time / byte = 0 us/byte
7391975000: global: Predicted memory time = 0 us
7391993125: global: Predicted memory time / byte = 0 us/byte
7392011250: global: Predicted memory time = 0 us
7392031250: global: Predicted memory access size = 0
7392049375: global: Predicted memory access size = 131072
7392067500: global: Predicted memory access size = 0
7392085625: global: Predicted memory access size = 65536
********************************************************************************
system.acctest.grayscale0.compute
   ========= Performance Analysis =============
   Setup Time:                      0.009046seconds
   Simulation Time:                 329.075387seconds
   System Clock:                    1.000000GHz
   Transistor Latency:              1ns
   Runtime:                         10263 cycles
   Runtime:                         10.263000 us
   Stalls:                          1 cycles
   Executed Nodes:                  10261 cycles

********************************************************************************
   ========= Performance Analysis =================
   Setup Time:                      9046242.000000ns
   Simulation Time:                 329075387220.000000ns
   System Clock:                    1.000000GHz
   Transistor Latency:              0ns
   Runtime:                         10263 cycles
   Runtime:                         0.000001 seconds
   Stalls:                          1 cycles
       Load Only:                   0 cycles
       Store Only:                  1 cycles
       Compute Only:                0 cycles
       Compute & Store:             0 cycles
       Load & Store:                0 cycles
       Load & Compute:              0 cycles
       Load & Compute & Store:      0 cycles
   Executed Nodes:                  10261 cycles
       Load Only:                   0 cycles
       Store Only:                  1 cycles
       Compute Only:                88 cycles
       Compute & Store:             344 cycles
       Load & Store:                0 cycles
       Load & Compute:              1981 cycles
       Load & Compute & Store:      7847 cycles

   ========= Runtime FU's ========= (Max | Avg) ===
   Counter FU's:                      24 | 0.199556
   Integer Add/Sub FU's:               0 | 0.000000
   Integer Mul/Div FU's:               8 | 0.199552
   Integer Shifter FU's:               0 | 0.000000
   Integer Bitwise FU's:               1 | 0.000097
   Floating Point Float Add/Sub:      49 | 0.114264
   Floating Point Double Add/Sub:      0 | 0.000000
   Floating Point Float Mul/Div:      42 | 0.114129
   Floating Point Double Mul/Div:      0 | 0.000000
   0 Cycle Compare FU's:               9 | 0.066626
   GEP Instruction FU's:              36 | 0.177452
   Type Conversion FU's:              76 | 0.401969

   ========= Static FU's ==========================
   Counter FU's:                    0
   Integer Add/Sub FU's:            0
   Integer Mul/Div FU's:            0
   Integer Shifter FU's:            0
   Integer Bitwise FU's:            0
   Floating Point Float Add/Sub:    0
   Floating Point Double Add/Sub:   0
   Floating Point Float Mul/Div:    0
   Floating Point Double Mul/Div:   0
   0 Cycle Compare FU's:            0
   GEP Instruction FU's:            0
   Type Conversion FU's:            0
   Other:                           0

   ========= Pipeline Register Usage =============
   Total Number of Registers:       235
   Max Register Usage Per Cycle:    90
   Avg Register Usage Per Cycle:    33.924291
   Avg Register Size (Bytes):       5.841147

   ========= Memory Configuration =================
   Cache Bus Ports:                 0
   Shared Cache Size:               0kB
   Local Bus Ports:                 0
   Private SPM Size:                176kB
   Private Read Ports:              0
   Private Write Ports:             0
   Private Read Bus Width:          64
   Private Write Bus Width:         64
       Memory Reads:                0
       Memory Writes:               0
   ========= Power Analysis ======================
   FU Leakage Power:                1.178269 mW 
   FU Dynamic Power:                0.617392 mW 
   FU Total Power:                  1.795662 mW 

   Registers Leakage Power:          0.014185 mW 
   Registers Dynamic Power:          0.101057 mW 
       Register Reads (Bits):        348165
       Register Writes (Bits):       348168
   Registers Total Power:            0.115242 mW

   SPM Leakage Power:               0.089881 mW
   SPM Read Dynamic Power:          6.997296 mW
   SPM Write Dynamic Power:         2.062375 mW
   SPM Total Power:                 9.149552 mW

   Cache Leakage Power:             0.000000 mW
   Cache Read Dynamic Power:        0.000000 mW
   Cache Write Dynamic Power:       0.000000 mW
   Cache Total Power:               0.000000 mW

   Accelerator Power:               1.910904 mW
   Accelerator Power (SPM):         11.060456 mW
   Accelerator Power (Cache):       1.910904 mW

   ========= Area Analysis =======================
   FU Area:                         143348.187500 um^2 (0.143348 mm^2)
   Register Area:                   1152.968140 um^2 (0.001153 mm^2)
   SPM Area:                        3573.642862 um^2 (0.003574 mm^2)
   Cache Area:                      0.000000 um^2 (0.000000 mm^2)

   Accelerator Area:                144501.156250 um^2 (0.144501 mm^2)
   Accelerator Area (SPM):          148074.799112 um^2 (0.148075 mm^2)
   Accelerator Area (Cache):        144501.156250 um^2 (0.144501 mm^2)

   ========= SPM Resizing  =======================
   SPM Optimized Leakage Power:     0.003633 mW
   SPM Opt Area:                    364.024374 um^2

7406150875: system.acctest.elem_matrix0_dma: SRC:0x0000000082b6bd40, DST:0x0000000024000020, LEN:65536
7406375000: global: Timer #0 stopped at tick 7406375000. Duration: 15340000
7406391250: global: Number of accelerators running = 3
7406508125: global: Timer #0 started at tick 7406508125
7406938750: global: Timer #2 started at tick 7406938750
7406968750: global: Timer #2 stopped at tick 7406968750. Duration: 30000
7407406875: global: DAG ID = 0
7407420625: global: Node ID = 1
7407433750: global: Node deadline difference = -13494
7407446250: global: Predicted memory time / byte = 0 us/byte
7407458750: global: Predicted memory time = 0 us
7407471250: global: Predicted memory time / byte = 0 us/byte
7407483750: global: Predicted memory time = 0 us
7407496250: global: Predicted memory time / byte = 0 us/byte
7407508750: global: Predicted memory time = 0 us
7407521250: global: Predicted memory time / byte = 0 us/byte
7407533750: global: Predicted memory time = 0 us
7407546250: global: Predicted memory access size = 0
7407558750: global: Predicted memory access size = 49152
7407571250: global: Predicted memory access size = 0
7407583750: global: Predicted memory access size = 0
7408874500: system.acctest.convolution0_dma: SRC:0x000000002500c020, DST:0x0000000022000020, LEN:65536
7409273125: global: Timer #0 stopped at tick 7409273125. Duration: 2765000
7409289375: global: Number of accelerators running = 3
7418210875: system.acctest.elem_matrix0_dma: Transfer completed in 12.06 us
7418296875: global: Timer #0 started at tick 7418296875
********************************************************************************
system.acctest.isp0.compute
   ========= Performance Analysis =============
   Setup Time:                      0.653162seconds
   Simulation Time:                 888.212469seconds
   System Clock:                    1.000000GHz
   Transistor Latency:              1ns
   Runtime:                         34882 cycles
   Runtime:                         34.882000 us
   Stalls:                          1 cycles
   Executed Nodes:                  34880 cycles

********************************************************************************
   ========= Performance Analysis =================
   Setup Time:                      653162251.000000ns
   Simulation Time:                 888212468570.000000ns
   System Clock:                    1.000000GHz
   Transistor Latency:              0ns
   Runtime:                         34882 cycles
   Runtime:                         0.000003 seconds
   Stalls:                          1 cycles
       Load Only:                   0 cycles
       Store Only:                  1 cycles
       Compute Only:                0 cycles
       Compute & Store:             0 cycles
       Load & Store:                0 cycles
       Load & Compute:              0 cycles
       Load & Compute & Store:      0 cycles
   Executed Nodes:                  34880 cycles
       Load Only:                   0 cycles
       Store Only:                  1 cycles
       Compute Only:                3453 cycles
       Compute & Store:             19014 cycles
       Load & Store:                0 cycles
       Load & Compute:              2467 cycles
       Load & Compute & Store:      9945 cycles

   ========= Runtime FU's ========= (Max | Avg) ===
   Counter FU's:                      10 | 0.118075
   Integer Add/Sub FU's:              76 | 0.082082
   Integer Mul/Div FU's:              11 | 0.043888
   Integer Shifter FU's:              42 | 0.055974
   Integer Bitwise FU's:               4 | 0.059443
   Floating Point Float Add/Sub:      53 | 0.116839
   Floating Point Double Add/Sub:      0 | 0.000000
   Floating Point Float Mul/Div:      76 | 0.625626
   Floating Point Double Mul/Div:      0 | 0.000000
   0 Cycle Compare FU's:              85 | 0.664984
   GEP Instruction FU's:              33 | 0.117424
   Type Conversion FU's:             110 | 0.379700

   ========= Static FU's ==========================
   Counter FU's:                    0
   Integer Add/Sub FU's:            0
   Integer Mul/Div FU's:            0
   Integer Shifter FU's:            0
   Integer Bitwise FU's:            0
   Floating Point Float Add/Sub:    0
   Floating Point Double Add/Sub:   0
   Floating Point Float Mul/Div:    0
   Floating Point Double Mul/Div:   0
   0 Cycle Compare FU's:            0
   GEP Instruction FU's:            0
   Type Conversion FU's:            0
   Other:                           0

   ========= Pipeline Register Usage =============
   Total Number of Registers:       1620
   Max Register Usage Per Cycle:    151
   Avg Register Usage Per Cycle:    58.744711
   Avg Register Size (Bytes):       5.073357

   ========= Memory Configuration =================
   Cache Bus Ports:                 0
   Shared Cache Size:               0kB
   Local Bus Ports:                 0
   Private SPM Size:                112kB
   Private Read Ports:              0
   Private Write Ports:             0
   Private Read Bus Width:          64
   Private Write Bus Width:         64
       Memory Reads:                0
       Memory Writes:               0
   ========= Power Analysis ======================
   FU Leakage Power:                1.637787 mW 
   FU Dynamic Power:                9.655087 mW 
   FU Total Power:                  11.292874 mW 

   Registers Leakage Power:          0.021654 mW 
   Registers Dynamic Power:          3.085961 mW 
       Register Reads (Bits):        2049133
       Register Writes (Bits):       2049168
   Registers Total Power:            3.107615 mW

   SPM Leakage Power:               0.061081 mW
   SPM Read Dynamic Power:          15.102444 mW
   SPM Write Dynamic Power:         10.618341 mW
   SPM Total Power:                 25.781867 mW

   Cache Leakage Power:             0.000000 mW
   Cache Read Dynamic Power:        0.000000 mW
   Cache Write Dynamic Power:       0.000000 mW
   Cache Total Power:               0.000000 mW

   Accelerator Power:               14.400490 mW
   Accelerator Power (SPM):         40.182357 mW
   Accelerator Power (Cache):       14.400490 mW

   ========= Area Analysis =======================
   FU Area:                         176023.796875 um^2 (0.176024 mm^2)
   Register Area:                   1760.064941 um^2 (0.001760 mm^2)
   SPM Area:                        2165.394891 um^2 (0.002165 mm^2)
   Cache Area:                      0.000000 um^2 (0.000000 mm^2)

   Accelerator Area:                177783.859375 um^2 (0.177784 mm^2)
   Accelerator Area (SPM):          179949.254266 um^2 (0.179949 mm^2)
   Accelerator Area (Cache):        177783.859375 um^2 (0.177784 mm^2)

   ========= SPM Resizing  =======================
   SPM Optimized Leakage Power:     0.005964 mW
   SPM Opt Area:                    422.108128 um^2

7423117500: system.acctest.convolution0_dma: Transfer completed in 14.243 us
7431616625: system.acctest.elem_matrix0_dma: SRC:0x0000000082a2bb80, DST:0x0000000024010020, LEN:65536
7431851875: global: Timer #0 stopped at tick 7431851875. Duration: 13555000
7431868125: global: Number of accelerators running = 3
7431986875: global: Timer #0 started at tick 7431986875
7432391250: global: Timer #2 started at tick 7432391250
7432420625: global: Timer #2 stopped at tick 7432420625. Duration: 29375
7432746875: global: DAG ID = 1
7432760625: global: Node ID = 0
7432773750: global: Node deadline difference = -163
7432786250: global: Predicted memory time / byte = 0 us/byte
7432798750: global: Predicted memory time = 0 us
7432811250: global: Predicted memory time / byte = 0 us/byte
7432823750: global: Predicted memory time = 0 us
7432836250: global: Predicted memory time / byte = 0 us/byte
7432848750: global: Predicted memory time = 0 us
7432861250: global: Predicted memory time / byte = 0 us/byte
7432873750: global: Predicted memory time = 0 us
7432886250: global: Predicted memory access size = 0
7432898750: global: Predicted memory access size = 16900
7432911250: global: Predicted memory access size = 0
7432923750: global: Predicted memory access size = 0
7433711000: system.acctest.grayscale0_dma: SRC:0x0000000027010224, DST:0x0000000025000020, LEN:49152
7433928125: global: Timer #0 stopped at tick 7433928125. Duration: 1941250
7433944375: global: Number of accelerators running = 3
7434073750: global: Timer #0 started at tick 7434073750
7435370000: system.acctest.convolution0_dma: SRC:0x0000000082039280, DST:0x0000000022030020, LEN:100
7435485000: system.acctest.convolution0_dma: Transfer completed in 0.115 us
7435636250: global: Timer #0 stopped at tick 7435636250. Duration: 1562500
7435652500: global: Number of accelerators running = 3
7435765000: global: Timer #0 started at tick 7435765000
7437177500: global: Timer #0 stopped at tick 7437177500. Duration: 1412500
7437193750: global: Number of accelerators running = 3
7443690625: system.acctest.elem_matrix0_dma: Transfer completed in 12.074 us
7443776875: global: Timer #0 started at tick 7443776875
7445143750: global: Timer #0 stopped at tick 7445143750. Duration: 1366875
7445160000: global: Number of accelerators running = 3
7445661000: system.acctest.grayscale0_dma: Transfer completed in 11.95 us
7445748125: global: Timer #0 started at tick 7445748125
7446432500: global: Timer #0 stopped at tick 7446432500. Duration: 684375
7446448750: global: Number of accelerators running = 3
********************************************************************************
system.acctest.elem_matrix0.compute
   ========= Performance Analysis =============
   Setup Time:                      8.070385seconds
   Simulation Time:                 382.936643seconds
   System Clock:                    1.000000GHz
   Transistor Latency:              1ns
   Runtime:                         10932 cycles
   Runtime:                         10.932000 us
   Stalls:                          0 cycles
   Executed Nodes:                  10931 cycles

********************************************************************************
   ========= Performance Analysis =================
   Setup Time:                      8070384563.999999ns
   Simulation Time:                 382936643440.000000ns
   System Clock:                    1.000000GHz
   Transistor Latency:              0ns
   Runtime:                         10932 cycles
   Runtime:                         0.000001 seconds
   Stalls:                          0 cycles
       Load Only:                   0 cycles
       Store Only:                  0 cycles
       Compute Only:                0 cycles
       Compute & Store:             0 cycles
       Load & Store:                0 cycles
       Load & Compute:              0 cycles
       Load & Compute & Store:      0 cycles
   Executed Nodes:                  10931 cycles
       Load Only:                   0 cycles
       Store Only:                  5 cycles
       Compute Only:                1 cycles
       Compute & Store:             21 cycles
       Load & Store:                0 cycles
       Load & Compute:              7 cycles
       Load & Compute & Store:      10897 cycles

   ========= Runtime FU's ========= (Max | Avg) ===
   Counter FU's:                      32 | 0.046838
   Integer Add/Sub FU's:               0 | 0.000000
   Integer Mul/Div FU's:               0 | 0.000000
   Integer Shifter FU's:               0 | 0.000000
   Integer Bitwise FU's:               1 | 0.000091
   Floating Point Float Add/Sub:      34 | 0.044252
   Floating Point Double Add/Sub:      0 | 0.000000
   Floating Point Float Mul/Div:       0 | 0.000000
   Floating Point Double Mul/Div:      0 | 0.000000
   0 Cycle Compare FU's:             102 | 0.046974
   GEP Instruction FU's:              96 | 0.046835
   Type Conversion FU's:               7 | 0.006782

   ========= Static FU's ==========================
   Counter FU's:                    0
   Integer Add/Sub FU's:            0
   Integer Mul/Div FU's:            0
   Integer Shifter FU's:            0
   Integer Bitwise FU's:            0
   Floating Point Float Add/Sub:    0
   Floating Point Double Add/Sub:   0
   Floating Point Float Mul/Div:    0
   Floating Point Double Mul/Div:   0
   0 Cycle Compare FU's:            0
   GEP Instruction FU's:            0
   Type Conversion FU's:            0
   Other:                           0

   ========= Pipeline Register Usage =============
   Total Number of Registers:       5641
   Max Register Usage Per Cycle:    138
   Avg Register Usage Per Cycle:    12.130992
   Avg Register Size (Bytes):       5.980606

   ========= Memory Configuration =================
   Cache Bus Ports:                 0
   Shared Cache Size:               0kB
   Local Bus Ports:                 0
   Private SPM Size:                256kB
   Private Read Ports:              0
   Private Write Ports:             0
   Private Read Bus Width:          64
   Private Write Bus Width:         64
       Memory Reads:                0
       Memory Writes:               0
   ========= Power Analysis ======================
   FU Leakage Power:                0.519269 mW 
   FU Dynamic Power:                0.154621 mW 
   FU Total Power:                  0.673890 mW 

   Registers Leakage Power:          0.005281 mW 
   Registers Dynamic Power:          0.015326 mW 
       Register Reads (Bits):        132616
       Register Writes (Bits):       133658
   Registers Total Power:            0.020607 mW

   SPM Leakage Power:               0.104100 mW
   SPM Read Dynamic Power:          2.785289 mW
   SPM Write Dynamic Power:         2.044305 mW
   SPM Total Power:                 4.933694 mW

   Cache Leakage Power:             0.000000 mW
   Cache Read Dynamic Power:        0.000000 mW
   Cache Write Dynamic Power:       0.000000 mW
   Cache Total Power:               0.000000 mW

   Accelerator Power:               0.694497 mW
   Accelerator Power (SPM):         5.628191 mW
   Accelerator Power (Cache):       0.694497 mW

   ========= Area Analysis =======================
   FU Area:                         70212.562500 um^2 (0.070213 mm^2)
   Register Area:                   429.271088 um^2 (0.000429 mm^2)
   SPM Area:                        2177.365505 um^2 (0.002177 mm^2)
   Cache Area:                      0.000000 um^2 (0.000000 mm^2)

   Accelerator Area:                70641.835938 um^2 (0.070642 mm^2)
   Accelerator Area (SPM):          72819.201442 um^2 (0.072819 mm^2)
   Accelerator Area (Cache):        70641.835938 um^2 (0.070642 mm^2)

   ========= SPM Resizing  =======================
   SPM Optimized Leakage Power:     0.004248 mW
   SPM Opt Area:                    178.524902 um^2

7455935625: global: Timer #0 started at tick 7455935625
7456235000: global: Timer #2 started at tick 7456235000
7456264375: global: Timer #2 stopped at tick 7456264375. Duration: 29375
7456426250: global: Timer #2 started at tick 7456426250
7456455625: global: Timer #2 stopped at tick 7456455625. Duration: 29375
********************************************************************************
system.acctest.grayscale0.compute
   ========= Performance Analysis =============
   Setup Time:                      0.008801seconds
   Simulation Time:                 357.674278seconds
   System Clock:                    1.000000GHz
   Transistor Latency:              1ns
   Runtime:                         10263 cycles
   Runtime:                         10.263000 us
   Stalls:                          1 cycles
   Executed Nodes:                  10261 cycles

********************************************************************************
   ========= Performance Analysis =================
   Setup Time:                      8801456.000000ns
   Simulation Time:                 357674278403.000000ns
   System Clock:                    1.000000GHz
   Transistor Latency:              0ns
   Runtime:                         10263 cycles
   Runtime:                         0.000001 seconds
   Stalls:                          1 cycles
       Load Only:                   0 cycles
       Store Only:                  1 cycles
       Compute Only:                0 cycles
       Compute & Store:             0 cycles
       Load & Store:                0 cycles
       Load & Compute:              0 cycles
       Load & Compute & Store:      0 cycles
   Executed Nodes:                  10261 cycles
       Load Only:                   0 cycles
       Store Only:                  1 cycles
       Compute Only:                88 cycles
       Compute & Store:             344 cycles
       Load & Store:                0 cycles
       Load & Compute:              1981 cycles
       Load & Compute & Store:      7847 cycles

   ========= Runtime FU's ========= (Max | Avg) ===
   Counter FU's:                      24 | 0.199556
   Integer Add/Sub FU's:               0 | 0.000000
   Integer Mul/Div FU's:               8 | 0.199552
   Integer Shifter FU's:               0 | 0.000000
   Integer Bitwise FU's:               1 | 0.000097
   Floating Point Float Add/Sub:      49 | 0.114264
   Floating Point Double Add/Sub:      0 | 0.000000
   Floating Point Float Mul/Div:      42 | 0.114129
   Floating Point Double Mul/Div:      0 | 0.000000
   0 Cycle Compare FU's:               9 | 0.066626
   GEP Instruction FU's:              36 | 0.177452
   Type Conversion FU's:              76 | 0.401969

   ========= Static FU's ==========================
   Counter FU's:                    0
   Integer Add/Sub FU's:            0
   Integer Mul/Div FU's:            0
   Integer Shifter FU's:            0
   Integer Bitwise FU's:            0
   Floating Point Float Add/Sub:    0
   Floating Point Double Add/Sub:   0
   Floating Point Float Mul/Div:    0
   Floating Point Double Mul/Div:   0
   0 Cycle Compare FU's:            0
   GEP Instruction FU's:            0
   Type Conversion FU's:            0
   Other:                           0

   ========= Pipeline Register Usage =============
   Total Number of Registers:       235
   Max Register Usage Per Cycle:    90
   Avg Register Usage Per Cycle:    33.924291
   Avg Register Size (Bytes):       5.841147

   ========= Memory Configuration =================
   Cache Bus Ports:                 0
   Shared Cache Size:               0kB
   Local Bus Ports:                 0
   Private SPM Size:                176kB
   Private Read Ports:              0
   Private Write Ports:             0
   Private Read Bus Width:          64
   Private Write Bus Width:         64
       Memory Reads:                0
       Memory Writes:               0
   ========= Power Analysis ======================
   FU Leakage Power:                1.178269 mW 
   FU Dynamic Power:                0.617392 mW 
   FU Total Power:                  1.795662 mW 

   Registers Leakage Power:          0.014185 mW 
   Registers Dynamic Power:          0.101057 mW 
       Register Reads (Bits):        348165
       Register Writes (Bits):       348168
   Registers Total Power:            0.115242 mW

   SPM Leakage Power:               0.089881 mW
   SPM Read Dynamic Power:          10.232207 mW
   SPM Write Dynamic Power:         5.980668 mW
   SPM Total Power:                 16.302756 mW

   Cache Leakage Power:             0.000000 mW
   Cache Read Dynamic Power:        0.000000 mW
   Cache Write Dynamic Power:       0.000000 mW
   Cache Total Power:               0.000000 mW

   Accelerator Power:               1.910904 mW
   Accelerator Power (SPM):         18.213660 mW
   Accelerator Power (Cache):       1.910904 mW

   ========= Area Analysis =======================
   FU Area:                         143348.187500 um^2 (0.143348 mm^2)
   Register Area:                   1152.968140 um^2 (0.001153 mm^2)
   SPM Area:                        3573.642862 um^2 (0.003574 mm^2)
   Cache Area:                      0.000000 um^2 (0.000000 mm^2)

   Accelerator Area:                144501.156250 um^2 (0.144501 mm^2)
   Accelerator Area (SPM):          148074.799112 um^2 (0.148075 mm^2)
   Accelerator Area (Cache):        144501.156250 um^2 (0.144501 mm^2)

   ========= SPM Resizing  =======================
   SPM Optimized Leakage Power:     0.003633 mW
   SPM Opt Area:                    364.024374 um^2

7456676250: global: Timer #2 started at tick 7456676250
7456705625: global: Timer #2 stopped at tick 7456705625. Duration: 29375
7456850000: global: Timer #2 started at tick 7456850000
7456879375: global: Timer #2 stopped at tick 7456879375. Duration: 29375
7470160875: system.acctest.elem_matrix0_dma: SRC:0x0000000024020020, DST:0x0000000082a3bb80, LEN:65536
7470510000: global: Timer #0 stopped at tick 7470510000. Duration: 14574375
7470526250: global: Number of accelerators running = 3
7470645625: global: Timer #0 started at tick 7470645625
7471216875: global: Timer #2 started at tick 7471216875
7471246250: global: Timer #2 stopped at tick 7471246250. Duration: 29375
7477380875: system.acctest.elem_matrix0_dma: Transfer completed in 7.22 us
7486658750: system.acctest.grayscale0_dma: SRC:0x000000002500c020, DST:0x000000008211eb40, LEN:65536
7487068125: global: Timer #0 stopped at tick 7487068125. Duration: 16422500
7487084375: global: Number of accelerators running = 3
7487201875: global: Timer #0 started at tick 7487201875
7487734375: global: DAG ID = 3
7487748125: global: Node ID = 0
7487766250: global: Node deadline difference = -3500
7487778750: global: Predicted memory time / byte = 0 us/byte
7487791250: global: Predicted memory time = 0 us
7487803750: global: Predicted memory time / byte = 0 us/byte
7487816250: global: Predicted memory time = 0 us
7487828750: global: Predicted memory time / byte = 0 us/byte
7487841250: global: Predicted memory time = 0 us
7487853750: global: Predicted memory time / byte = 0 us/byte
7487866250: global: Predicted memory time = 0 us
7487878750: global: Predicted memory access size = 0
7487891250: global: Predicted memory access size = 131072
7487903750: global: Predicted memory access size = 0
7487916250: global: Predicted memory access size = 65536
7493308750: system.acctest.grayscale0_dma: Transfer completed in 6.65 us
7501589500: system.acctest.elem_matrix0_dma: SRC:0x0000000082290bc0, DST:0x0000000024000020, LEN:65536
7501810000: global: Timer #0 stopped at tick 7501810000. Duration: 14608125
7501826250: global: Number of accelerators running = 3
7501943750: global: Timer #0 started at tick 7501943750
7502585625: global: DAG ID = 1
7502599375: global: Node ID = 1
7502617500: global: Node deadline difference = -130
7502630000: global: Predicted memory time / byte = 0 us/byte
7502642500: global: Predicted memory time = 0 us
7502655000: global: Predicted memory time / byte = 0 us/byte
7502667500: global: Predicted memory time = 0 us
7502680000: global: Predicted memory time / byte = 0 us/byte
7502692500: global: Predicted memory time = 0 us
7502705000: global: Predicted memory time / byte = 0 us/byte
7502717500: global: Predicted memory time = 0 us
7502730000: global: Predicted memory access size = 0
7502742500: global: Predicted memory access size = 49152
7502755000: global: Predicted memory access size = 0
7502767500: global: Predicted memory access size = 65536
7502890625: global: Timer #0 stopped at tick 7502890625. Duration: 946875
7502906875: global: Number of accelerators running = 2
7513619500: system.acctest.elem_matrix0_dma: Transfer completed in 12.03 us
7513705625: global: Timer #0 started at tick 7513705625
7527055875: system.acctest.elem_matrix0_dma: SRC:0x0000000082130880, DST:0x0000000024010020, LEN:65536
7527278125: global: Timer #0 stopped at tick 7527278125. Duration: 13572500
7527294375: global: Number of accelerators running = 2
7539228875: system.acctest.elem_matrix0_dma: Transfer completed in 12.173 us
7539305000: global: Timer #0 started at tick 7539305000
7540638125: global: Timer #0 stopped at tick 7540638125. Duration: 1333125
7540654375: global: Number of accelerators running = 2
********************************************************************************
system.acctest.elem_matrix0.compute
   ========= Performance Analysis =============
   Setup Time:                      6.193208seconds
   Simulation Time:                 182.744081seconds
   System Clock:                    1.000000GHz
   Transistor Latency:              1ns
   Runtime:                         10932 cycles
   Runtime:                         10.932000 us
   Stalls:                          1 cycles
   Executed Nodes:                  10930 cycles

********************************************************************************
   ========= Performance Analysis =================
   Setup Time:                      6193207742.000000ns
   Simulation Time:                 182744080524.000000ns
   System Clock:                    1.000000GHz
   Transistor Latency:              0ns
   Runtime:                         10932 cycles
   Runtime:                         0.000001 seconds
   Stalls:                          1 cycles
       Load Only:                   0 cycles
       Store Only:                  1 cycles
       Compute Only:                0 cycles
       Compute & Store:             0 cycles
       Load & Store:                0 cycles
       Load & Compute:              0 cycles
       Load & Compute & Store:      0 cycles
   Executed Nodes:                  10930 cycles
       Load Only:                   0 cycles
       Store Only:                  4 cycles
       Compute Only:                1 cycles
       Compute & Store:             21 cycles
       Load & Store:                0 cycles
       Load & Compute:              6 cycles
       Load & Compute & Store:      10898 cycles

   ========= Runtime FU's ========= (Max | Avg) ===
   Counter FU's:                      32 | 0.046838
   Integer Add/Sub FU's:               0 | 0.000000
   Integer Mul/Div FU's:               0 | 0.000000
   Integer Shifter FU's:               0 | 0.000000
   Integer Bitwise FU's:               1 | 0.000091
   Floating Point Float Add/Sub:       0 | 0.000000
   Floating Point Double Add/Sub:      0 | 0.000000
   Floating Point Float Mul/Div:      34 | 0.044252
   Floating Point Double Mul/Div:      0 | 0.000000
   0 Cycle Compare FU's:             102 | 0.046945
   GEP Instruction FU's:              96 | 0.046835
   Type Conversion FU's:               7 | 0.006782

   ========= Static FU's ==========================
   Counter FU's:                    0
   Integer Add/Sub FU's:            0
   Integer Mul/Div FU's:            0
   Integer Shifter FU's:            0
   Integer Bitwise FU's:            0
   Floating Point Float Add/Sub:    0
   Floating Point Double Add/Sub:   0
   Floating Point Float Mul/Div:    0
   Floating Point Double Mul/Div:   0
   0 Cycle Compare FU's:            0
   GEP Instruction FU's:            0
   Type Conversion FU's:            0
   Other:                           0

   ========= Pipeline Register Usage =============
   Total Number of Registers:       5641
   Max Register Usage Per Cycle:    137
   Avg Register Usage Per Cycle:    12.130992
   Avg Register Size (Bytes):       5.980606

   ========= Memory Configuration =================
   Cache Bus Ports:                 0
   Shared Cache Size:               0kB
   Local Bus Ports:                 0
   Private SPM Size:                256kB
   Private Read Ports:              0
   Private Write Ports:             0
   Private Read Bus Width:          64
   Private Write Bus Width:         64
       Memory Reads:                0
       Memory Writes:               0
   ========= Power Analysis ======================
   FU Leakage Power:                0.045377 mW 
   FU Dynamic Power:                0.142576 mW 
   FU Total Power:                  0.187953 mW 

   Registers Leakage Power:          0.005281 mW 
   Registers Dynamic Power:          0.015326 mW 
       Register Reads (Bits):        132616
       Register Writes (Bits):       133658
   Registers Total Power:            0.020607 mW

   SPM Leakage Power:               0.104100 mW
   SPM Read Dynamic Power:          3.776796 mW
   SPM Write Dynamic Power:         2.457440 mW
   SPM Total Power:                 6.338336 mW

   Cache Leakage Power:             0.000000 mW
   Cache Read Dynamic Power:        0.000000 mW
   Cache Write Dynamic Power:       0.000000 mW
   Cache Total Power:               0.000000 mW

   Accelerator Power:               0.208559 mW
   Accelerator Power (SPM):         6.546896 mW
   Accelerator Power (Cache):       0.208559 mW

   ========= Area Analysis =======================
   FU Area:                         5472.068359 um^2 (0.005472 mm^2)
   Register Area:                   429.271088 um^2 (0.000429 mm^2)
   SPM Area:                        2177.365505 um^2 (0.002177 mm^2)
   Cache Area:                      0.000000 um^2 (0.000000 mm^2)

   Accelerator Area:                5901.339355 um^2 (0.005901 mm^2)
   Accelerator Area (SPM):          8078.704860 um^2 (0.008079 mm^2)
   Accelerator Area (Cache):        5901.339355 um^2 (0.005901 mm^2)

   ========= SPM Resizing  =======================
   SPM Optimized Leakage Power:     0.004248 mW
   SPM Opt Area:                    178.524902 um^2

7551432500: global: Timer #0 started at tick 7551432500
7551735000: global: Timer #2 started at tick 7551735000
7551775625: global: Timer #2 stopped at tick 7551775625. Duration: 40625
7564965875: system.acctest.elem_matrix0_dma: SRC:0x0000000024020020, DST:0x00000000821b0a00, LEN:65536
7565326875: global: Timer #0 stopped at tick 7565326875. Duration: 13894375
7565343125: global: Number of accelerators running = 2
7571309875: system.acctest.elem_matrix0_dma: Transfer completed in 6.344 us
7571385000: global: Timer #0 started at tick 7571385000
7571569375: global: DAG ID = 2
7571583125: global: Node ID = 1
7571601250: global: Node deadline difference = -2375
7571613750: global: Predicted memory time / byte = 0 us/byte
7571626250: global: Predicted memory time = 0 us
7571638750: global: Predicted memory time / byte = 0 us/byte
7571651250: global: Predicted memory time = 0 us
7571663750: global: Predicted memory time / byte = 0 us/byte
7571676250: global: Predicted memory time = 0 us
7571688750: global: Predicted memory time / byte = 0 us/byte
7571701250: global: Predicted memory time = 0 us
7571713750: global: Predicted memory access size = 0
7571726250: global: Predicted memory access size = 131072
7571738750: global: Predicted memory access size = 0
7571751250: global: Predicted memory access size = 65536
7585005875: system.acctest.elem_matrix0_dma: SRC:0x00000000821a0a00, DST:0x0000000024000020, LEN:65536
7585216875: global: Timer #0 stopped at tick 7585216875. Duration: 13831875
7585233125: global: Number of accelerators running = 2
7596937875: system.acctest.elem_matrix0_dma: Transfer completed in 11.932 us
7597014375: global: Timer #0 started at tick 7597014375
7610317375: system.acctest.elem_matrix0_dma: SRC:0x0000000082150880, DST:0x0000000024010020, LEN:65536
7610550000: global: Timer #0 stopped at tick 7610550000. Duration: 13535625
7610566250: global: Number of accelerators running = 2
7622313375: system.acctest.elem_matrix0_dma: Transfer completed in 11.996 us
7622389375: global: Timer #0 started at tick 7622389375
7623713125: global: Timer #0 stopped at tick 7623713125. Duration: 1323750
7623729375: global: Number of accelerators running = 2
********************************************************************************
system.acctest.elem_matrix0.compute
   ========= Performance Analysis =============
   Setup Time:                      7.482026seconds
   Simulation Time:                 169.161205seconds
   System Clock:                    1.000000GHz
   Transistor Latency:              1ns
   Runtime:                         10932 cycles
   Runtime:                         10.932000 us
   Stalls:                          1 cycles
   Executed Nodes:                  10930 cycles

********************************************************************************
   ========= Performance Analysis =================
   Setup Time:                      7482025819.000000ns
   Simulation Time:                 169161205212.000000ns
   System Clock:                    1.000000GHz
   Transistor Latency:              0ns
   Runtime:                         10932 cycles
   Runtime:                         0.000001 seconds
   Stalls:                          1 cycles
       Load Only:                   0 cycles
       Store Only:                  1 cycles
       Compute Only:                0 cycles
       Compute & Store:             0 cycles
       Load & Store:                0 cycles
       Load & Compute:              0 cycles
       Load & Compute & Store:      0 cycles
   Executed Nodes:                  10930 cycles
       Load Only:                   0 cycles
       Store Only:                  4 cycles
       Compute Only:                1 cycles
       Compute & Store:             21 cycles
       Load & Store:                0 cycles
       Load & Compute:              6 cycles
       Load & Compute & Store:      10898 cycles

   ========= Runtime FU's ========= (Max | Avg) ===
   Counter FU's:                      32 | 0.046838
   Integer Add/Sub FU's:               0 | 0.000000
   Integer Mul/Div FU's:               0 | 0.000000
   Integer Shifter FU's:               0 | 0.000000
   Integer Bitwise FU's:               1 | 0.000091
   Floating Point Float Add/Sub:       0 | 0.000000
   Floating Point Double Add/Sub:      0 | 0.000000
   Floating Point Float Mul/Div:      34 | 0.044252
   Floating Point Double Mul/Div:      0 | 0.000000
   0 Cycle Compare FU's:             102 | 0.046945
   GEP Instruction FU's:              96 | 0.046835
   Type Conversion FU's:               7 | 0.006782

   ========= Static FU's ==========================
   Counter FU's:                    0
   Integer Add/Sub FU's:            0
   Integer Mul/Div FU's:            0
   Integer Shifter FU's:            0
   Integer Bitwise FU's:            0
   Floating Point Float Add/Sub:    0
   Floating Point Double Add/Sub:   0
   Floating Point Float Mul/Div:    0
   Floating Point Double Mul/Div:   0
   0 Cycle Compare FU's:            0
   GEP Instruction FU's:            0
   Type Conversion FU's:            0
   Other:                           0

   ========= Pipeline Register Usage =============
   Total Number of Registers:       5641
   Max Register Usage Per Cycle:    137
   Avg Register Usage Per Cycle:    12.130992
   Avg Register Size (Bytes):       5.980606

   ========= Memory Configuration =================
   Cache Bus Ports:                 0
   Shared Cache Size:               0kB
   Local Bus Ports:                 0
   Private SPM Size:                256kB
   Private Read Ports:              0
   Private Write Ports:             0
   Private Read Bus Width:          64
   Private Write Bus Width:         64
       Memory Reads:                0
       Memory Writes:               0
   ========= Power Analysis ======================
   FU Leakage Power:                0.045377 mW 
   FU Dynamic Power:                0.142576 mW 
   FU Total Power:                  0.187953 mW 

   Registers Leakage Power:          0.005281 mW 
   Registers Dynamic Power:          0.015326 mW 
       Register Reads (Bits):        132616
       Register Writes (Bits):       133658
   Registers Total Power:            0.020607 mW

   SPM Leakage Power:               0.104100 mW
   SPM Read Dynamic Power:          4.579344 mW
   SPM Write Dynamic Power:         2.880682 mW
   SPM Total Power:                 7.564127 mW

   Cache Leakage Power:             0.000000 mW
   Cache Read Dynamic Power:        0.000000 mW
   Cache Write Dynamic Power:       0.000000 mW
   Cache Total Power:               0.000000 mW

   Accelerator Power:               0.208559 mW
   Accelerator Power (SPM):         7.772686 mW
   Accelerator Power (Cache):       0.208559 mW

   ========= Area Analysis =======================
   FU Area:                         5472.068359 um^2 (0.005472 mm^2)
   Register Area:                   429.271088 um^2 (0.000429 mm^2)
   SPM Area:                        2177.365505 um^2 (0.002177 mm^2)
   Cache Area:                      0.000000 um^2 (0.000000 mm^2)

   Accelerator Area:                5901.339355 um^2 (0.005901 mm^2)
   Accelerator Area (SPM):          8078.704860 um^2 (0.008079 mm^2)
   Accelerator Area (Cache):        5901.339355 um^2 (0.005901 mm^2)

   ========= SPM Resizing  =======================
   SPM Optimized Leakage Power:     0.004248 mW
   SPM Opt Area:                    178.524902 um^2

7634507500: global: Timer #0 started at tick 7634507500
7634806250: global: Timer #2 started at tick 7634806250
7634838750: global: Timer #2 stopped at tick 7634838750. Duration: 32500
7648022375: system.acctest.elem_matrix0_dma: SRC:0x0000000024020020, DST:0x00000000821f0a00, LEN:65536
7648374375: global: Timer #0 stopped at tick 7648374375. Duration: 13866875
7648390625: global: Number of accelerators running = 2
7654304375: system.acctest.elem_matrix0_dma: Transfer completed in 6.282 us
7654380000: global: Timer #0 started at tick 7654380000
7654569375: global: DAG ID = 2
7654583125: global: Node ID = 5
7654601250: global: Node deadline difference = -2024
7654613750: global: Predicted memory time / byte = 0 us/byte
7654626250: global: Predicted memory time = 0 us
7654638750: global: Predicted memory time / byte = 0 us/byte
7654651250: global: Predicted memory time = 0 us
7654663750: global: Predicted memory time / byte = 0 us/byte
7654676250: global: Predicted memory time = 0 us
7654688750: global: Predicted memory time / byte = 0 us/byte
7654701250: global: Predicted memory time = 0 us
7654713750: global: Predicted memory access size = 0
7654726250: global: Predicted memory access size = 131072
7654738750: global: Predicted memory access size = 0
7654751250: global: Predicted memory access size = 65536
7668005875: system.acctest.elem_matrix0_dma: SRC:0x0000000082a3bb80, DST:0x0000000024000020, LEN:65536
7668216875: global: Timer #0 stopped at tick 7668216875. Duration: 13836875
7668233125: global: Number of accelerators running = 2
7679969875: system.acctest.elem_matrix0_dma: Transfer completed in 11.964 us
7680045000: global: Timer #0 started at tick 7680045000
7693347375: system.acctest.elem_matrix0_dma: SRC:0x00000000829aba00, DST:0x0000000024010020, LEN:65536
7693570000: global: Timer #0 stopped at tick 7693570000. Duration: 13525000
7693586250: global: Number of accelerators running = 2
7705297375: system.acctest.elem_matrix0_dma: Transfer completed in 11.95 us
7705373125: global: Timer #0 started at tick 7705373125
7706681250: global: Timer #0 stopped at tick 7706681250. Duration: 1308125
7706697500: global: Number of accelerators running = 2
********************************************************************************
system.acctest.elem_matrix0.compute
   ========= Performance Analysis =============
   Setup Time:                      7.641254seconds
   Simulation Time:                 165.118971seconds
   System Clock:                    1.000000GHz
   Transistor Latency:              1ns
   Runtime:                         10932 cycles
   Runtime:                         10.932000 us
   Stalls:                          1 cycles
   Executed Nodes:                  10930 cycles

********************************************************************************
   ========= Performance Analysis =================
   Setup Time:                      7641254300.000000ns
   Simulation Time:                 165118971093.000000ns
   System Clock:                    1.000000GHz
   Transistor Latency:              0ns
   Runtime:                         10932 cycles
   Runtime:                         0.000001 seconds
   Stalls:                          1 cycles
       Load Only:                   0 cycles
       Store Only:                  1 cycles
       Compute Only:                0 cycles
       Compute & Store:             0 cycles
       Load & Store:                0 cycles
       Load & Compute:              0 cycles
       Load & Compute & Store:      0 cycles
   Executed Nodes:                  10930 cycles
       Load Only:                   0 cycles
       Store Only:                  4 cycles
       Compute Only:                1 cycles
       Compute & Store:             21 cycles
       Load & Store:                0 cycles
       Load & Compute:              6 cycles
       Load & Compute & Store:      10898 cycles

   ========= Runtime FU's ========= (Max | Avg) ===
   Counter FU's:                      32 | 0.046838
   Integer Add/Sub FU's:               0 | 0.000000
   Integer Mul/Div FU's:               0 | 0.000000
   Integer Shifter FU's:               0 | 0.000000
   Integer Bitwise FU's:               1 | 0.000091
   Floating Point Float Add/Sub:       0 | 0.000000
   Floating Point Double Add/Sub:      0 | 0.000000
   Floating Point Float Mul/Div:      34 | 0.044252
   Floating Point Double Mul/Div:      0 | 0.000000
   0 Cycle Compare FU's:             102 | 0.046945
   GEP Instruction FU's:              96 | 0.046835
   Type Conversion FU's:               7 | 0.006782

   ========= Static FU's ==========================
   Counter FU's:                    0
   Integer Add/Sub FU's:            0
   Integer Mul/Div FU's:            0
   Integer Shifter FU's:            0
   Integer Bitwise FU's:            0
   Floating Point Float Add/Sub:    0
   Floating Point Double Add/Sub:   0
   Floating Point Float Mul/Div:    0
   Floating Point Double Mul/Div:   0
   0 Cycle Compare FU's:            0
   GEP Instruction FU's:            0
   Type Conversion FU's:            0
   Other:                           0

   ========= Pipeline Register Usage =============
   Total Number of Registers:       5641
   Max Register Usage Per Cycle:    137
   Avg Register Usage Per Cycle:    12.130992
   Avg Register Size (Bytes):       5.980606

   ========= Memory Configuration =================
   Cache Bus Ports:                 0
   Shared Cache Size:               0kB
   Local Bus Ports:                 0
   Private SPM Size:                256kB
   Private Read Ports:              0
   Private Write Ports:             0
   Private Read Bus Width:          64
   Private Write Bus Width:         64
       Memory Reads:                0
       Memory Writes:               0
   ========= Power Analysis ======================
   FU Leakage Power:                0.045377 mW 
   FU Dynamic Power:                0.142576 mW 
   FU Total Power:                  0.187953 mW 

   Registers Leakage Power:          0.005281 mW 
   Registers Dynamic Power:          0.015326 mW 
       Register Reads (Bits):        132616
       Register Writes (Bits):       133658
   Registers Total Power:            0.020607 mW

   SPM Leakage Power:               0.104100 mW
   SPM Read Dynamic Power:          4.985201 mW
   SPM Write Dynamic Power:         3.448926 mW
   SPM Total Power:                 8.538228 mW

   Cache Leakage Power:             0.000000 mW
   Cache Read Dynamic Power:        0.000000 mW
   Cache Write Dynamic Power:       0.000000 mW
   Cache Total Power:               0.000000 mW

   Accelerator Power:               0.208559 mW
   Accelerator Power (SPM):         8.746787 mW
   Accelerator Power (Cache):       0.208559 mW

   ========= Area Analysis =======================
   FU Area:                         5472.068359 um^2 (0.005472 mm^2)
   Register Area:                   429.271088 um^2 (0.000429 mm^2)
   SPM Area:                        2177.365505 um^2 (0.002177 mm^2)
   Cache Area:                      0.000000 um^2 (0.000000 mm^2)

   Accelerator Area:                5901.339355 um^2 (0.005901 mm^2)
   Accelerator Area (SPM):          8078.704860 um^2 (0.008079 mm^2)
   Accelerator Area (Cache):        5901.339355 um^2 (0.005901 mm^2)

   ========= SPM Resizing  =======================
   SPM Optimized Leakage Power:     0.004248 mW
   SPM Opt Area:                    178.524902 um^2

7717484375: global: Timer #0 started at tick 7717484375
7717723125: global: Timer #2 started at tick 7717723125
7717752500: global: Timer #2 stopped at tick 7717752500. Duration: 29375
7730930875: system.acctest.elem_matrix0_dma: SRC:0x0000000024020020, DST:0x0000000082a4bb80, LEN:65536
7731281875: global: Timer #0 stopped at tick 7731281875. Duration: 13797500
7731298125: global: Number of accelerators running = 2
7737262875: system.acctest.elem_matrix0_dma: Transfer completed in 6.332 us
7737339375: global: Timer #0 started at tick 7737339375
7737524375: global: DAG ID = 3
7737538125: global: Node ID = 1
7737562500: global: Node deadline difference = -3307
7737575000: global: Predicted memory time / byte = 0 us/byte
7737587500: global: Predicted memory time = 0 us
7737600000: global: Predicted memory time / byte = 0 us/byte
7737612500: global: Predicted memory time = 0 us
7737625000: global: Predicted memory time / byte = 0 us/byte
7737637500: global: Predicted memory time = 0 us
7737650000: global: Predicted memory time / byte = 0 us/byte
7737662500: global: Predicted memory time = 0 us
7737675000: global: Predicted memory access size = 0
7737687500: global: Predicted memory access size = 131072
7737700000: global: Predicted memory access size = 0
7737712500: global: Predicted memory access size = 65536
7750969500: system.acctest.elem_matrix0_dma: SRC:0x0000000082a3bb80, DST:0x0000000024000020, LEN:65536
7751170625: global: Timer #0 stopped at tick 7751170625. Duration: 13831250
7751186875: global: Number of accelerators running = 2
7762940500: system.acctest.elem_matrix0_dma: Transfer completed in 11.971 us
7763016250: global: Timer #0 started at tick 7763016250
7776315875: system.acctest.elem_matrix0_dma: SRC:0x00000000829cba00, DST:0x0000000024010020, LEN:65536
7776538125: global: Timer #0 stopped at tick 7776538125. Duration: 13521875
7776554375: global: Number of accelerators running = 2
7788247875: system.acctest.elem_matrix0_dma: Transfer completed in 11.932 us
7788324375: global: Timer #0 started at tick 7788324375
7789628750: global: Timer #0 stopped at tick 7789628750. Duration: 1304375
7789645000: global: Number of accelerators running = 2
********************************************************************************
system.acctest.elem_matrix0.compute
   ========= Performance Analysis =============
   Setup Time:                      6.302769seconds
   Simulation Time:                 165.572675seconds
   System Clock:                    1.000000GHz
   Transistor Latency:              1ns
   Runtime:                         10932 cycles
   Runtime:                         10.932000 us
   Stalls:                          1 cycles
   Executed Nodes:                  10930 cycles

********************************************************************************
   ========= Performance Analysis =================
   Setup Time:                      6302768659.000000ns
   Simulation Time:                 165572674720.000000ns
   System Clock:                    1.000000GHz
   Transistor Latency:              0ns
   Runtime:                         10932 cycles
   Runtime:                         0.000001 seconds
   Stalls:                          1 cycles
       Load Only:                   0 cycles
       Store Only:                  1 cycles
       Compute Only:                0 cycles
       Compute & Store:             0 cycles
       Load & Store:                0 cycles
       Load & Compute:              0 cycles
       Load & Compute & Store:      0 cycles
   Executed Nodes:                  10930 cycles
       Load Only:                   0 cycles
       Store Only:                  4 cycles
       Compute Only:                1 cycles
       Compute & Store:             21 cycles
       Load & Store:                0 cycles
       Load & Compute:              6 cycles
       Load & Compute & Store:      10898 cycles

   ========= Runtime FU's ========= (Max | Avg) ===
   Counter FU's:                      32 | 0.046838
   Integer Add/Sub FU's:               0 | 0.000000
   Integer Mul/Div FU's:               0 | 0.000000
   Integer Shifter FU's:               0 | 0.000000
   Integer Bitwise FU's:               1 | 0.000091
   Floating Point Float Add/Sub:       0 | 0.000000
   Floating Point Double Add/Sub:      0 | 0.000000
   Floating Point Float Mul/Div:      34 | 0.044252
   Floating Point Double Mul/Div:      0 | 0.000000
   0 Cycle Compare FU's:             102 | 0.046945
   GEP Instruction FU's:              96 | 0.046835
   Type Conversion FU's:               7 | 0.006782

   ========= Static FU's ==========================
   Counter FU's:                    0
   Integer Add/Sub FU's:            0
   Integer Mul/Div FU's:            0
   Integer Shifter FU's:            0
   Integer Bitwise FU's:            0
   Floating Point Float Add/Sub:    0
   Floating Point Double Add/Sub:   0
   Floating Point Float Mul/Div:    0
   Floating Point Double Mul/Div:   0
   0 Cycle Compare FU's:            0
   GEP Instruction FU's:            0
   Type Conversion FU's:            0
   Other:                           0

   ========= Pipeline Register Usage =============
   Total Number of Registers:       5641
   Max Register Usage Per Cycle:    137
   Avg Register Usage Per Cycle:    12.130992
   Avg Register Size (Bytes):       5.980606

   ========= Memory Configuration =================
   Cache Bus Ports:                 0
   Shared Cache Size:               0kB
   Local Bus Ports:                 0
   Private SPM Size:                256kB
   Private Read Ports:              0
   Private Write Ports:             0
   Private Read Bus Width:          64
   Private Write Bus Width:         64
       Memory Reads:                0
       Memory Writes:               0
   ========= Power Analysis ======================
   FU Leakage Power:                0.045377 mW 
   FU Dynamic Power:                0.142576 mW 
   FU Total Power:                  0.187953 mW 

   Registers Leakage Power:          0.005281 mW 
   Registers Dynamic Power:          0.015326 mW 
       Register Reads (Bits):        132616
       Register Writes (Bits):       133658
   Registers Total Power:            0.020607 mW

   SPM Leakage Power:               0.104100 mW
   SPM Read Dynamic Power:          5.394845 mW
   SPM Write Dynamic Power:         3.846212 mW
   SPM Total Power:                 9.345157 mW

   Cache Leakage Power:             0.000000 mW
   Cache Read Dynamic Power:        0.000000 mW
   Cache Write Dynamic Power:       0.000000 mW
   Cache Total Power:               0.000000 mW

   Accelerator Power:               0.208559 mW
   Accelerator Power (SPM):         9.553717 mW
   Accelerator Power (Cache):       0.208559 mW

   ========= Area Analysis =======================
   FU Area:                         5472.068359 um^2 (0.005472 mm^2)
   Register Area:                   429.271088 um^2 (0.000429 mm^2)
   SPM Area:                        2177.365505 um^2 (0.002177 mm^2)
   Cache Area:                      0.000000 um^2 (0.000000 mm^2)

   Accelerator Area:                5901.339355 um^2 (0.005901 mm^2)
   Accelerator Area (SPM):          8078.704860 um^2 (0.008079 mm^2)
   Accelerator Area (Cache):        5901.339355 um^2 (0.005901 mm^2)

   ========= SPM Resizing  =======================
   SPM Optimized Leakage Power:     0.004248 mW
   SPM Opt Area:                    178.524902 um^2

7800432500: global: Timer #0 started at tick 7800432500
7800731250: global: Timer #2 started at tick 7800731250
7800760625: global: Timer #2 stopped at tick 7800760625. Duration: 29375
7813930875: system.acctest.elem_matrix0_dma: SRC:0x0000000024020020, DST:0x0000000082a8bb80, LEN:65536
7814281875: global: Timer #0 stopped at tick 7814281875. Duration: 13849375
7814298125: global: Number of accelerators running = 2
7820318875: system.acctest.elem_matrix0_dma: Transfer completed in 6.388 us
7820395000: global: Timer #0 started at tick 7820395000
7820579375: global: DAG ID = 3
7820593125: global: Node ID = 5
7820611250: global: Node deadline difference = -3224
7820623750: global: Predicted memory time / byte = 0 us/byte
7820636250: global: Predicted memory time = 0 us
7820648750: global: Predicted memory time / byte = 0 us/byte
7820661250: global: Predicted memory time = 0 us
7820673750: global: Predicted memory time / byte = 0 us/byte
7820686250: global: Predicted memory time = 0 us
7820698750: global: Predicted memory time / byte = 0 us/byte
7820711250: global: Predicted memory time = 0 us
7820723750: global: Predicted memory access size = 0
7820736250: global: Predicted memory access size = 131072
7820748750: global: Predicted memory access size = 0
7820761250: global: Predicted memory access size = 65536
7834015875: system.acctest.elem_matrix0_dma: SRC:0x0000000082a3bb80, DST:0x0000000024000020, LEN:65536
7834216875: global: Timer #0 stopped at tick 7834216875. Duration: 13821875
7834233125: global: Number of accelerators running = 2
7846017875: system.acctest.elem_matrix0_dma: Transfer completed in 12.002 us
7846094375: global: Timer #0 started at tick 7846094375
7859390875: system.acctest.elem_matrix0_dma: SRC:0x00000000829eba00, DST:0x0000000024010020, LEN:65536
7859606250: global: Timer #0 stopped at tick 7859606250. Duration: 13511875
7859622500: global: Number of accelerators running = 2
7871340875: system.acctest.elem_matrix0_dma: Transfer completed in 11.95 us
7871417500: global: Timer #0 started at tick 7871417500
7872718750: global: Timer #0 stopped at tick 7872718750. Duration: 1301250
7872735000: global: Number of accelerators running = 2
********************************************************************************
system.acctest.elem_matrix0.compute
   ========= Performance Analysis =============
   Setup Time:                      7.456695seconds
   Simulation Time:                 166.461661seconds
   System Clock:                    1.000000GHz
   Transistor Latency:              1ns
   Runtime:                         10932 cycles
   Runtime:                         10.932000 us
   Stalls:                          1 cycles
   Executed Nodes:                  10930 cycles

********************************************************************************
   ========= Performance Analysis =================
   Setup Time:                      7456694642.000000ns
   Simulation Time:                 166461661097.000000ns
   System Clock:                    1.000000GHz
   Transistor Latency:              0ns
   Runtime:                         10932 cycles
   Runtime:                         0.000001 seconds
   Stalls:                          1 cycles
       Load Only:                   0 cycles
       Store Only:                  1 cycles
       Compute Only:                0 cycles
       Compute & Store:             0 cycles
       Load & Store:                0 cycles
       Load & Compute:              0 cycles
       Load & Compute & Store:      0 cycles
   Executed Nodes:                  10930 cycles
       Load Only:                   0 cycles
       Store Only:                  4 cycles
       Compute Only:                1 cycles
       Compute & Store:             21 cycles
       Load & Store:                0 cycles
       Load & Compute:              6 cycles
       Load & Compute & Store:      10898 cycles

   ========= Runtime FU's ========= (Max | Avg) ===
   Counter FU's:                      32 | 0.046838
   Integer Add/Sub FU's:               0 | 0.000000
   Integer Mul/Div FU's:               0 | 0.000000
   Integer Shifter FU's:               0 | 0.000000
   Integer Bitwise FU's:               1 | 0.000091
   Floating Point Float Add/Sub:       0 | 0.000000
   Floating Point Double Add/Sub:      0 | 0.000000
   Floating Point Float Mul/Div:      34 | 0.044252
   Floating Point Double Mul/Div:      0 | 0.000000
   0 Cycle Compare FU's:             102 | 0.046945
   GEP Instruction FU's:              96 | 0.046835
   Type Conversion FU's:               7 | 0.006782

   ========= Static FU's ==========================
   Counter FU's:                    0
   Integer Add/Sub FU's:            0
   Integer Mul/Div FU's:            0
   Integer Shifter FU's:            0
   Integer Bitwise FU's:            0
   Floating Point Float Add/Sub:    0
   Floating Point Double Add/Sub:   0
   Floating Point Float Mul/Div:    0
   Floating Point Double Mul/Div:   0
   0 Cycle Compare FU's:            0
   GEP Instruction FU's:            0
   Type Conversion FU's:            0
   Other:                           0

   ========= Pipeline Register Usage =============
   Total Number of Registers:       5641
   Max Register Usage Per Cycle:    137
   Avg Register Usage Per Cycle:    12.130992
   Avg Register Size (Bytes):       5.980606

   ========= Memory Configuration =================
   Cache Bus Ports:                 0
   Shared Cache Size:               0kB
   Local Bus Ports:                 0
   Private SPM Size:                256kB
   Private Read Ports:              0
   Private Write Ports:             0
   Private Read Bus Width:          64
   Private Write Bus Width:         64
       Memory Reads:                0
       Memory Writes:               0
   ========= Power Analysis ======================
   FU Leakage Power:                0.045377 mW 
   FU Dynamic Power:                0.142576 mW 
   FU Total Power:                  0.187953 mW 

   Registers Leakage Power:          0.005281 mW 
   Registers Dynamic Power:          0.015326 mW 
       Register Reads (Bits):        132616
       Register Writes (Bits):       133658
   Registers Total Power:            0.020607 mW

   SPM Leakage Power:               0.104100 mW
   SPM Read Dynamic Power:          5.804542 mW
   SPM Write Dynamic Power:         4.937352 mW
   SPM Total Power:                 10.845994 mW

[...]
   Runtime:                         0.000001 seconds
   Stalls:                          0 cycles
       Load Only:                   0 cycles
       Store Only:                  0 cycles
       Compute Only:                0 cycles
       Compute & Store:             0 cycles
       Load & Store:                0 cycles
       Load & Compute:              0 cycles
       Load & Compute & Store:      0 cycles
   Executed Nodes:                  10931 cycles
       Load Only:                   0 cycles
       Store Only:                  5 cycles
       Compute Only:                1 cycles
       Compute & Store:             21 cycles
       Load & Store:                0 cycles
       Load & Compute:              7 cycles
       Load & Compute & Store:      10897 cycles

   ========= Runtime FU's ========= (Max | Avg) ===
   Counter FU's:                      32 | 0.046838
   Integer Add/Sub FU's:               0 | 0.000000
   Integer Mul/Div FU's:               0 | 0.000000
   Integer Shifter FU's:               0 | 0.000000
   Integer Bitwise FU's:               1 | 0.000091
   Floating Point Float Add/Sub:      34 | 0.044252
   Floating Point Double Add/Sub:      0 | 0.000000
   Floating Point Float Mul/Div:       0 | 0.000000
   Floating Point Double Mul/Div:      0 | 0.000000
   0 Cycle Compare FU's:             102 | 0.046974
   GEP Instruction FU's:              96 | 0.046835
   Type Conversion FU's:               7 | 0.006782

   ========= Static FU's ==========================
   Counter FU's:                    0
   Integer Add/Sub FU's:            0
   Integer Mul/Div FU's:            0
   Integer Shifter FU's:            0
   Integer Bitwise FU's:            0
   Floating Point Float Add/Sub:    0
   Floating Point Double Add/Sub:   0
   Floating Point Float Mul/Div:    0
   Floating Point Double Mul/Div:   0
   0 Cycle Compare FU's:            0
   GEP Instruction FU's:            0
   Type Conversion FU's:            0
   Other:                           0

   ========= Pipeline Register Usage =============
   Total Number of Registers:       5641
   Max Register Usage Per Cycle:    138
   Avg Register Usage Per Cycle:    12.130992
   Avg Register Size (Bytes):       5.980606

   ========= Memory Configuration =================
   Cache Bus Ports:                 0
   Shared Cache Size:               0kB
   Local Bus Ports:                 0
   Private SPM Size:                256kB
   Private Read Ports:              0
   Private Write Ports:             0
   Private Read Bus Width:          64
   Private Write Bus Width:         64
       Memory Reads:                0
       Memory Writes:               0
   ========= Power Analysis ======================
   FU Leakage Power:                0.519269 mW 
   FU Dynamic Power:                0.154621 mW 
   FU Total Power:                  0.673890 mW 

   Registers Leakage Power:          0.005281 mW 
   Registers Dynamic Power:          0.015326 mW 
       Register Reads (Bits):        132616
       Register Writes (Bits):       133658
   Registers Total Power:            0.020607 mW

   SPM Leakage Power:               0.104100 mW
   SPM Read Dynamic Power:          34.836888 mW
   SPM Write Dynamic Power:         26.298291 mW
   SPM Total Power:                 61.239279 mW

   Cache Leakage Power:             0.000000 mW
   Cache Read Dynamic Power:        0.000000 mW
   Cache Write Dynamic Power:       0.000000 mW
   Cache Total Power:               0.000000 mW

   Accelerator Power:               0.694497 mW
   Accelerator Power (SPM):         61.933776 mW
   Accelerator Power (Cache):       0.694497 mW

   ========= Area Analysis =======================
   FU Area:                         70212.562500 um^2 (0.070213 mm^2)
   Register Area:                   429.271088 um^2 (0.000429 mm^2)
   SPM Area:                        2177.365505 um^2 (0.002177 mm^2)
   Cache Area:                      0.000000 um^2 (0.000000 mm^2)

   Accelerator Area:                70641.835938 um^2 (0.070642 mm^2)
   Accelerator Area (SPM):          72819.201442 um^2 (0.072819 mm^2)
   Accelerator Area (Cache):        70641.835938 um^2 (0.070642 mm^2)

   ========= SPM Resizing  =======================
   SPM Optimized Leakage Power:     0.004248 mW
   SPM Opt Area:                    178.524902 um^2

27930522500: global: Timer #0 started at tick 27930522500
27943825875: system.acctest.elem_matrix0_dma: SRC:0x0000000024010020, DST:0x000000008299a400, LEN:65536
27944173125: global: Timer #0 stopped at tick 27944173125. Duration: 13650625
27944189375: global: Number of accelerators running = 2
27950124875: system.acctest.elem_matrix0_dma: Transfer completed in 6.299 us
27950201250: global: Timer #0 started at tick 27950201250
27950390000: global: DAG ID = 2
27950403750: global: Node ID = 119
27950427500: global: DAG execution time = 20650
27950440625: global: DAG deadline difference = 13650
27950457500: global: Node deadline difference = 13650
27950470000: global: Predicted memory time / byte = 0 us/byte
27950482500: global: Predicted memory time = 0 us
27950495000: global: Predicted memory time / byte = 0 us/byte
27950507500: global: Predicted memory time = 0 us
27950520000: global: Predicted memory time / byte = 0 us/byte
27950532500: global: Predicted memory time = 0 us
27950545000: global: Predicted memory time / byte = 0 us/byte
27950557500: global: Predicted memory time = 0 us
27950570000: global: Predicted memory access size = 0
27950582500: global: Predicted memory access size = 65536
27950595000: global: Predicted memory access size = 0
27950607500: global: Predicted memory access size = 65536
27950701250: global: Timer #0 stopped at tick 27950701250. Duration: 500000
27950717500: global: Number of accelerators running = 1
********************************************************************************
system.acctest.convolution0.compute
   ========= Performance Analysis =============
   Setup Time:                      0.407322seconds
   Simulation Time:                 781.870722seconds
   System Clock:                    1.000000GHz
   Transistor Latency:              1ns
   Runtime:                         1545605 cycles
   Runtime:                         1545.605000 us
   Stalls:                          0 cycles
   Executed Nodes:                  1545604 cycles

********************************************************************************
   ========= Performance Analysis =================
   Setup Time:                      407321620.000000ns
   Simulation Time:                 781870722244.000000ns
   System Clock:                    1.000000GHz
   Transistor Latency:              0ns
   Runtime:                         1545605 cycles
   Runtime:                         0.000155 seconds
   Stalls:                          0 cycles
       Load Only:                   0 cycles
       Store Only:                  0 cycles
       Compute Only:                0 cycles
       Compute & Store:             0 cycles
       Load & Store:                0 cycles
       Load & Compute:              0 cycles
       Load & Compute & Store:      0 cycles
   Executed Nodes:                  1545604 cycles
       Load Only:                   0 cycles
       Store Only:                  0 cycles
       Compute Only:                1127274 cycles
       Compute & Store:             16374 cycles
       Load & Store:                0 cycles
       Load & Compute:              401946 cycles
       Load & Compute & Store:      10 cycles

   ========= Runtime FU's ========= (Max | Avg) ===
   Counter FU's:                       3 | 0.112298
   Integer Add/Sub FU's:               4 | 0.211564
   Integer Mul/Div FU's:               1 | 0.052505
   Integer Shifter FU's:              10 | 0.005268
   Integer Bitwise FU's:               2 | 0.184266
   Floating Point Float Add/Sub:       5 | 0.207991
   Floating Point Double Add/Sub:      0 | 0.000000
   Floating Point Float Mul/Div:       2 | 0.130117
   Floating Point Double Mul/Div:      0 | 0.000000
   0 Cycle Compare FU's:              40 | 0.145956
   GEP Instruction FU's:               4 | 0.132683
   Type Conversion FU's:               7 | 0.186618

   ========= Static FU's ==========================
   Counter FU's:                    0
   Integer Add/Sub FU's:            0
   Integer Mul/Div FU's:            0
   Integer Shifter FU's:            0
   Integer Bitwise FU's:            0
   Floating Point Float Add/Sub:    0
   Floating Point Double Add/Sub:   0
   Floating Point Float Mul/Div:    0
   Floating Point Double Mul/Div:   0
   0 Cycle Compare FU's:            0
   GEP Instruction FU's:            0
   Type Conversion FU's:            0
   Other:                           0

   ========= Pipeline Register Usage =============
   Total Number of Registers:       1702
   Max Register Usage Per Cycle:    20
   Avg Register Usage Per Cycle:    6.348199
   Avg Register Size (Bytes):       5.569148

   ========= Memory Configuration =================
   Cache Bus Ports:                 0
   Shared Cache Size:               0kB
   Local Bus Ports:                 0
   Private SPM Size:                192kB
   Private Read Ports:              0
   Private Write Ports:             0
   Private Read Bus Width:          64
   Private Write Bus Width:         64
       Memory Reads:                0
       Memory Writes:               0
   ========= Power Analysis ======================
   FU Leakage Power:                0.196912 mW 
   FU Dynamic Power:                2743.028564 mW 
   FU Total Power:                  2743.225586 mW 

   Registers Leakage Power:          0.002459 mW 
   Registers Dynamic Power:          75.251152 mW 
       Register Reads (Bits):        9811808
       Register Writes (Bits):       10049727
   Registers Total Power:            75.253609 mW

   SPM Leakage Power:               0.078311 mW
   SPM Read Dynamic Power:          37.099763 mW
   SPM Write Dynamic Power:         5.754209 mW
   SPM Total Power:                 42.932282 mW

   Cache Leakage Power:             0.000000 mW
   Cache Read Dynamic Power:        0.000000 mW
   Cache Write Dynamic Power:       0.000000 mW
   Cache Total Power:               0.000000 mW

   Accelerator Power:               2818.479248 mW
   Accelerator Power (SPM):         2861.411530 mW
   Accelerator Power (Cache):       2818.479248 mW

   ========= Area Analysis =======================
   FU Area:                         22931.867188 um^2 (0.022932 mm^2)
   Register Area:                   199.868912 um^2 (0.000200 mm^2)
   SPM Area:                        1748.188735 um^2 (0.001748 mm^2)
   Cache Area:                      0.000000 um^2 (0.000000 mm^2)

   Accelerator Area:                23131.736328 um^2 (0.023132 mm^2)
   Accelerator Area (SPM):          24879.925063 um^2 (0.024880 mm^2)
   Accelerator Area (Cache):        23131.736328 um^2 (0.023132 mm^2)

   ========= SPM Resizing  =======================
   SPM Optimized Leakage Power:     0.002053 mW
   SPM Opt Area:                    145.024971 um^2

29266323125: global: Timer #0 started at tick 29266323125
29266693750: global: Timer #2 started at tick 29266693750
29266728750: global: Timer #2 stopped at tick 29266728750. Duration: 35000
29266973750: global: DAG ID = 1
29266987500: global: Node ID = 20
29267000625: global: Node deadline difference = 5356
29267013125: global: Predicted memory time / byte = 0 us/byte
29267025625: global: Predicted memory time = 0 us
29267038125: global: Predicted memory time / byte = 0 us/byte
29267050625: global: Predicted memory time = 0 us
29267063125: global: Predicted memory time / byte = 0 us/byte
29267075625: global: Predicted memory time = 0 us
29267088125: global: Predicted memory time / byte = 0 us/byte
29267100625: global: Predicted memory time = 0 us
29267113125: global: Predicted memory access size = 0
29267125625: global: Predicted memory access size = 65636
29267138125: global: Predicted memory access size = 0
29267150625: global: Predicted memory access size = 0
29280480875: system.acctest.elem_matrix0_dma: SRC:0x00000000820fe600, DST:0x0000000024000020, LEN:65536
29280678125: global: Timer #0 stopped at tick 29280678125. Duration: 14355000
29280694375: global: Number of accelerators running = 1
29292415875: system.acctest.elem_matrix0_dma: Transfer completed in 11.935 us
29292503125: global: Timer #0 started at tick 29292503125
29293411625: system.acctest.elem_matrix0_dma: SRC:0x0000000022010020, DST:0x0000000024010020, LEN:65536
29293642500: global: Timer #0 stopped at tick 29293642500. Duration: 1139375
29293658750: global: Number of accelerators running = 1
29303672625: system.acctest.elem_matrix0_dma: Transfer completed in 10.261 us
29303749375: global: Timer #0 started at tick 29303749375
29305106875: global: Timer #0 stopped at tick 29305106875. Duration: 1357500
29305123125: global: Number of accelerators running = 1
********************************************************************************
system.acctest.elem_matrix0.compute
   ========= Performance Analysis =============
   Setup Time:                      3.345640seconds
   Simulation Time:                 77.749475seconds
   System Clock:                    1.000000GHz
   Transistor Latency:              1ns
   Runtime:                         10932 cycles
   Runtime:                         10.932000 us
   Stalls:                          1 cycles
   Executed Nodes:                  10930 cycles

********************************************************************************
   ========= Performance Analysis =================
   Setup Time:                      3345639657.000000ns
   Simulation Time:                 77749474631.000000ns
   System Clock:                    1.000000GHz
   Transistor Latency:              0ns
   Runtime:                         10932 cycles
   Runtime:                         0.000001 seconds
   Stalls:                          1 cycles
       Load Only:                   0 cycles
       Store Only:                  1 cycles
       Compute Only:                0 cycles
       Compute & Store:             0 cycles
       Load & Store:                0 cycles
       Load & Compute:              0 cycles
       Load & Compute & Store:      0 cycles
   Executed Nodes:                  10930 cycles
       Load Only:                   0 cycles
       Store Only:                  4 cycles
       Compute Only:                1 cycles
       Compute & Store:             21 cycles
       Load & Store:                0 cycles
       Load & Compute:              6 cycles
       Load & Compute & Store:      10898 cycles

   ========= Runtime FU's ========= (Max | Avg) ===
   Counter FU's:                      32 | 0.046838
   Integer Add/Sub FU's:               0 | 0.000000
   Integer Mul/Div FU's:               0 | 0.000000
   Integer Shifter FU's:               0 | 0.000000
   Integer Bitwise FU's:               1 | 0.000091
   Floating Point Float Add/Sub:       0 | 0.000000
   Floating Point Double Add/Sub:      0 | 0.000000
   Floating Point Float Mul/Div:      34 | 0.044252
   Floating Point Double Mul/Div:      0 | 0.000000
   0 Cycle Compare FU's:             102 | 0.046945
   GEP Instruction FU's:              96 | 0.046835
   Type Conversion FU's:               7 | 0.006782

   ========= Static FU's ==========================
   Counter FU's:                    0
   Integer Add/Sub FU's:            0
   Integer Mul/Div FU's:            0
   Integer Shifter FU's:            0
   Integer Bitwise FU's:            0
   Floating Point Float Add/Sub:    0
   Floating Point Double Add/Sub:   0
   Floating Point Float Mul/Div:    0
   Floating Point Double Mul/Div:   0
   0 Cycle Compare FU's:            0
   GEP Instruction FU's:            0
   Type Conversion FU's:            0
   Other:                           0

   ========= Pipeline Register Usage =============
   Total Number of Registers:       5641
   Max Register Usage Per Cycle:    137
   Avg Register Usage Per Cycle:    12.130992
   Avg Register Size (Bytes):       5.980606

   ========= Memory Configuration =================
   Cache Bus Ports:                 0
   Shared Cache Size:               0kB
   Local Bus Ports:                 0
   Private SPM Size:                256kB
   Private Read Ports:              0
   Private Write Ports:             0
   Private Read Bus Width:          64
   Private Write Bus Width:         64
       Memory Reads:                0
       Memory Writes:               0
   ========= Power Analysis ======================
   FU Leakage Power:                0.045377 mW 
   FU Dynamic Power:                0.142576 mW 
   FU Total Power:                  0.187953 mW 

   Registers Leakage Power:          0.005281 mW 
   Registers Dynamic Power:          0.015326 mW 
       Register Reads (Bits):        132616
       Register Writes (Bits):       133658
   Registers Total Power:            0.020607 mW

   SPM Leakage Power:               0.104100 mW
   SPM Read Dynamic Power:          34.886951 mW
   SPM Write Dynamic Power:         26.349887 mW
   SPM Total Power:                 61.340938 mW

   Cache Leakage Power:             0.000000 mW
   Cache Read Dynamic Power:        0.000000 mW
   Cache Write Dynamic Power:       0.000000 mW
   Cache Total Power:               0.000000 mW

   Accelerator Power:               0.208559 mW
   Accelerator Power (SPM):         61.549498 mW
   Accelerator Power (Cache):       0.208559 mW

   ========= Area Analysis =======================
   FU Area:                         5472.068359 um^2 (0.005472 mm^2)
   Register Area:                   429.271088 um^2 (0.000429 mm^2)
   SPM Area:                        2177.365505 um^2 (0.002177 mm^2)
   Cache Area:                      0.000000 um^2 (0.000000 mm^2)

   Accelerator Area:                5901.339355 um^2 (0.005901 mm^2)
   Accelerator Area (SPM):          8078.704860 um^2 (0.008079 mm^2)
   Accelerator Area (Cache):        5901.339355 um^2 (0.005901 mm^2)

   ========= SPM Resizing  =======================
   SPM Optimized Leakage Power:     0.004248 mW
   SPM Opt Area:                    178.524902 um^2

29315887500: global: Timer #0 started at tick 29315887500
29329198750: system.acctest.elem_matrix0_dma: SRC:0x0000000024020020, DST:0x00000000820fe600, LEN:65536
29329546250: global: Timer #0 stopped at tick 29329546250. Duration: 13658750
29329562500: global: Number of accelerators running = 1
29335486750: system.acctest.elem_matrix0_dma: Transfer completed in 6.288 us
29335563125: global: Timer #0 started at tick 29335563125
29335758125: global: DAG ID = 1
29335771875: global: Node ID = 21
29335795625: global: DAG execution time = 22035
29335808750: global: DAG deadline difference = 5368
29335825625: global: Node deadline difference = 5368
29335838125: global: Predicted memory time / byte = 0 us/byte
29335850625: global: Predicted memory time = 0 us
29335863125: global: Predicted memory time / byte = 0 us/byte
29335875625: global: Predicted memory time = 0 us
29335888125: global: Predicted memory time / byte = 0 us/byte
29335900625: global: Predicted memory time = 0 us
29335913125: global: Predicted memory time / byte = 0 us/byte
29335925625: global: Predicted memory time = 0 us
29335938125: global: Predicted memory access size = 0
29335950625: global: Predicted memory access size = 131072
29335963125: global: Predicted memory access size = 0
29335975625: global: Predicted memory access size = 65536
29336069375: global: Timer #0 stopped at tick 29336069375. Duration: 506250
29336085625: global: Number of accelerators running = 0
29336165625: global: Number of forwards = 30
29336300000: global: Number of colocations = 16
29336319375: global: Number of DAG deadlines met = 1
29336338750: global: Number of node deadlines met = 62
29336506250: global: Total predicted compute time = 0 us
Exiting @ tick 29336733750 because m5_exit instruction encountered
