
---------- Begin Simulation Statistics ----------
final_tick                                28174669375                       # Number of ticks from beginning of simulation (restored from checkpoints and never reset)
host_inst_rate                                    240                       # Simulator instruction rate (inst/s)
host_mem_usage                                9017796                       # Number of bytes of host memory used
host_op_rate                                      246                       # Simulator op (including micro ops) rate (op/s)
host_seconds                                 31309.54                       # Real time elapsed on the host
host_tick_rate                                 702275                       # Simulator tick rate (ticks/s)
sim_freq                                 1000000000000                       # Frequency of simulated ticks
sim_insts                                     7501287                       # Number of instructions simulated
sim_ops                                       7708142                       # Number of ops (including micro ops) simulated
sim_seconds                                  0.021988                       # Number of seconds simulated
sim_ticks                                 21987920000                       # Number of ticks simulated
system.acctest.coherency_bus.snoop_filter.hit_multi_requests            0                       # Number of requests hitting in the snoop filter with multiple (>1) holders of the requested data.
system.acctest.coherency_bus.snoop_filter.hit_multi_snoops            0                       # Number of snoops hitting in the snoop filter with multiple (>1) holders of the requested data.
system.acctest.coherency_bus.snoop_filter.hit_single_requests            0                       # Number of requests hitting in the snoop filter with a single holder of the requested data.
system.acctest.coherency_bus.snoop_filter.hit_single_snoops            0                       # Number of snoops hitting in the snoop filter with a single holder of the requested data.
system.acctest.coherency_bus.snoop_filter.tot_requests            0                       # Total number of requests made to the snoop filter.
system.acctest.coherency_bus.snoop_filter.tot_snoops            0                       # Total number of snoops made to the snoop filter.
system.cf0.dma_read_bytes                           0                       # Number of bytes transfered via DMA reads (not PRD).
system.cf0.dma_read_full_pages                      0                       # Number of full page size DMA reads (not PRD).
system.cf0.dma_read_txs                             0                       # Number of DMA read transactions (not PRD).
system.cf0.dma_write_bytes                          0                       # Number of bytes transfered via DMA writes.
system.cf0.dma_write_full_pages                     0                       # Number of full page size DMA writes.
system.cf0.dma_write_txs                            0                       # Number of DMA write transactions.
system.cpu.branchPred.BTBCorrect                    0                       # Number of correct BTB predictions (this stat may not work properly.
system.cpu.branchPred.BTBHitPct             77.988937                       # BTB Hit Percentage
system.cpu.branchPred.BTBHits                   41735                       # Number of BTB hits
system.cpu.branchPred.BTBLookups                53514                       # Number of BTB lookups
system.cpu.branchPred.RASInCorrect                514                       # Number of incorrect RAS predictions.
system.cpu.branchPred.condIncorrect              4686                       # Number of conditional branches incorrect
system.cpu.branchPred.condPredicted             53685                       # Number of conditional branches predicted
system.cpu.branchPred.indirectHits               6126                       # Number of indirect target hits.
system.cpu.branchPred.indirectLookups            7326                       # Number of indirect predictor lookups.
system.cpu.branchPred.indirectMisses             1200                       # Number of indirect misses.
system.cpu.branchPred.lookups                   93858                       # Number of BP lookups
system.cpu.branchPred.usedRAS                   15460                       # Number of times the RAS was used to get a target.
system.cpu.branchPredindirectMispredicted         1044                       # Number of mispredicted indirect branches.
system.cpu.committedInsts                      570548                       # Number of instructions committed
system.cpu.committedOps                        611733                       # Number of ops (including micro ops) committed
system.cpu.cpi                               2.605083                       # CPI: cycles per instruction
system.cpu.discardedOps                         12347                       # Number of ops (including micro ops) which were discarded before commit
system.cpu.dtb.accesses                             0                       # DTB accesses
system.cpu.dtb.align_faults                         0                       # Number of TLB faults due to alignment restrictions
system.cpu.dtb.domain_faults                        0                       # Number of TLB faults due to domain restrictions
system.cpu.dtb.flush_entries                        0                       # Number of entries that have been flushed from TLB
system.cpu.dtb.flush_tlb                            0                       # Number of times complete TLB was flushed
system.cpu.dtb.flush_tlb_asid                       0                       # Number of times TLB was flushed by ASID
system.cpu.dtb.flush_tlb_mva                        0                       # Number of times TLB was flushed by MVA
system.cpu.dtb.flush_tlb_mva_asid                   0                       # Number of times TLB was flushed by MVA & ASID
system.cpu.dtb.hits                                 0                       # DTB hits
system.cpu.dtb.inst_accesses                        0                       # ITB inst accesses
system.cpu.dtb.inst_hits                            0                       # ITB inst hits
system.cpu.dtb.inst_misses                          0                       # ITB inst misses
system.cpu.dtb.misses                               0                       # DTB misses
system.cpu.dtb.perms_faults                         0                       # Number of TLB faults due to permissions restrictions
system.cpu.dtb.prefetch_faults                      0                       # Number of TLB faults due to prefetch
system.cpu.dtb.read_accesses                        0                       # DTB read accesses
system.cpu.dtb.read_hits                            0                       # DTB read hits
system.cpu.dtb.read_misses                          0                       # DTB read misses
system.cpu.dtb.stage2_mmu.stage2_tlb.accesses            0                       # DTB accesses
system.cpu.dtb.stage2_mmu.stage2_tlb.align_faults            0                       # Number of TLB faults due to alignment restrictions
system.cpu.dtb.stage2_mmu.stage2_tlb.domain_faults            0                       # Number of TLB faults due to domain restrictions
system.cpu.dtb.stage2_mmu.stage2_tlb.flush_entries            0                       # Number of entries that have been flushed from TLB
system.cpu.dtb.stage2_mmu.stage2_tlb.flush_tlb            0                       # Number of times complete TLB was flushed
system.cpu.dtb.stage2_mmu.stage2_tlb.flush_tlb_asid            0                       # Number of times TLB was flushed by ASID
system.cpu.dtb.stage2_mmu.stage2_tlb.flush_tlb_mva            0                       # Number of times TLB was flushed by MVA
system.cpu.dtb.stage2_mmu.stage2_tlb.flush_tlb_mva_asid            0                       # Number of times TLB was flushed by MVA & ASID
system.cpu.dtb.stage2_mmu.stage2_tlb.hits            0                       # DTB hits
system.cpu.dtb.stage2_mmu.stage2_tlb.inst_accesses            0                       # ITB inst accesses
system.cpu.dtb.stage2_mmu.stage2_tlb.inst_hits            0                       # ITB inst hits
system.cpu.dtb.stage2_mmu.stage2_tlb.inst_misses            0                       # ITB inst misses
system.cpu.dtb.stage2_mmu.stage2_tlb.misses            0                       # DTB misses
system.cpu.dtb.stage2_mmu.stage2_tlb.perms_faults            0                       # Number of TLB faults due to permissions restrictions
system.cpu.dtb.stage2_mmu.stage2_tlb.prefetch_faults            0                       # Number of TLB faults due to prefetch
system.cpu.dtb.stage2_mmu.stage2_tlb.read_accesses            0                       # DTB read accesses
system.cpu.dtb.stage2_mmu.stage2_tlb.read_hits            0                       # DTB read hits
system.cpu.dtb.stage2_mmu.stage2_tlb.read_misses            0                       # DTB read misses
system.cpu.dtb.stage2_mmu.stage2_tlb.walker.walkRequestOrigin_Requested::Data            0                       # Table walker requests started/completed, data/inst
system.cpu.dtb.stage2_mmu.stage2_tlb.walker.walkRequestOrigin_Requested::Inst            0                       # Table walker requests started/completed, data/inst
system.cpu.dtb.stage2_mmu.stage2_tlb.walker.walkRequestOrigin_Requested::total            0                       # Table walker requests started/completed, data/inst
system.cpu.dtb.stage2_mmu.stage2_tlb.walker.walkRequestOrigin_Completed::Data            0                       # Table walker requests started/completed, data/inst
system.cpu.dtb.stage2_mmu.stage2_tlb.walker.walkRequestOrigin_Completed::Inst            0                       # Table walker requests started/completed, data/inst
system.cpu.dtb.stage2_mmu.stage2_tlb.walker.walkRequestOrigin_Completed::total            0                       # Table walker requests started/completed, data/inst
system.cpu.dtb.stage2_mmu.stage2_tlb.walker.walkRequestOrigin::total            0                       # Table walker requests started/completed, data/inst
system.cpu.dtb.stage2_mmu.stage2_tlb.walker.walks            0                       # Table walker walks requested
system.cpu.dtb.stage2_mmu.stage2_tlb.write_accesses            0                       # DTB write accesses
system.cpu.dtb.stage2_mmu.stage2_tlb.write_hits            0                       # DTB write hits
system.cpu.dtb.stage2_mmu.stage2_tlb.write_misses            0                       # DTB write misses
system.cpu.dtb.walker.walkRequestOrigin_Requested::Data            0                       # Table walker requests started/completed, data/inst
system.cpu.dtb.walker.walkRequestOrigin_Requested::Inst            0                       # Table walker requests started/completed, data/inst
system.cpu.dtb.walker.walkRequestOrigin_Requested::total            0                       # Table walker requests started/completed, data/inst
system.cpu.dtb.walker.walkRequestOrigin_Completed::Data            0                       # Table walker requests started/completed, data/inst
system.cpu.dtb.walker.walkRequestOrigin_Completed::Inst            0                       # Table walker requests started/completed, data/inst
system.cpu.dtb.walker.walkRequestOrigin_Completed::total            0                       # Table walker requests started/completed, data/inst
system.cpu.dtb.walker.walkRequestOrigin::total            0                       # Table walker requests started/completed, data/inst
system.cpu.dtb.walker.walks                         0                       # Table walker walks requested
system.cpu.dtb.write_accesses                       0                       # DTB write accesses
system.cpu.dtb.write_hits                           0                       # DTB write hits
system.cpu.dtb.write_misses                         0                       # DTB write misses
system.cpu.fetch2.amo_instructions                  0                       # Number of memory atomic instructions successfully decoded
system.cpu.fetch2.fp_instructions                   0                       # Number of floating point instructions successfully decoded
system.cpu.fetch2.int_instructions             406838                       # Number of integer instructions successfully decoded
system.cpu.fetch2.load_instructions             94761                       # Number of memory load instructions successfully decoded
system.cpu.fetch2.store_instructions            44599                       # Number of memory store instructions successfully decoded
system.cpu.fetch2.vec_instructions                  0                       # Number of SIMD instructions successfully decoded
system.cpu.idleCycles                          781419                       # Total number of cycles that the object has spent stopped
system.cpu.ipc                               0.383865                       # IPC: instructions per cycle
system.cpu.itb.accesses                             0                       # DTB accesses
system.cpu.itb.align_faults                         0                       # Number of TLB faults due to alignment restrictions
system.cpu.itb.domain_faults                        0                       # Number of TLB faults due to domain restrictions
system.cpu.itb.flush_entries                        0                       # Number of entries that have been flushed from TLB
system.cpu.itb.flush_tlb                            0                       # Number of times complete TLB was flushed
system.cpu.itb.flush_tlb_asid                       0                       # Number of times TLB was flushed by ASID
system.cpu.itb.flush_tlb_mva                        0                       # Number of times TLB was flushed by MVA
system.cpu.itb.flush_tlb_mva_asid                   0                       # Number of times TLB was flushed by MVA & ASID
system.cpu.itb.hits                                 0                       # DTB hits
system.cpu.itb.inst_accesses                        0                       # ITB inst accesses
system.cpu.itb.inst_hits                            0                       # ITB inst hits
system.cpu.itb.inst_misses                          0                       # ITB inst misses
system.cpu.itb.misses                               0                       # DTB misses
system.cpu.itb.perms_faults                         0                       # Number of TLB faults due to permissions restrictions
system.cpu.itb.prefetch_faults                      0                       # Number of TLB faults due to prefetch
system.cpu.itb.read_accesses                        0                       # DTB read accesses
system.cpu.itb.read_hits                            0                       # DTB read hits
system.cpu.itb.read_misses                          0                       # DTB read misses
system.cpu.itb.stage2_mmu.stage2_tlb.accesses            0                       # DTB accesses
system.cpu.itb.stage2_mmu.stage2_tlb.align_faults            0                       # Number of TLB faults due to alignment restrictions
system.cpu.itb.stage2_mmu.stage2_tlb.domain_faults            0                       # Number of TLB faults due to domain restrictions
system.cpu.itb.stage2_mmu.stage2_tlb.flush_entries            0                       # Number of entries that have been flushed from TLB
system.cpu.itb.stage2_mmu.stage2_tlb.flush_tlb            0                       # Number of times complete TLB was flushed
system.cpu.itb.stage2_mmu.stage2_tlb.flush_tlb_asid            0                       # Number of times TLB was flushed by ASID
system.cpu.itb.stage2_mmu.stage2_tlb.flush_tlb_mva            0                       # Number of times TLB was flushed by MVA
system.cpu.itb.stage2_mmu.stage2_tlb.flush_tlb_mva_asid            0                       # Number of times TLB was flushed by MVA & ASID
system.cpu.itb.stage2_mmu.stage2_tlb.hits            0                       # DTB hits
system.cpu.itb.stage2_mmu.stage2_tlb.inst_accesses            0                       # ITB inst accesses
system.cpu.itb.stage2_mmu.stage2_tlb.inst_hits            0                       # ITB inst hits
system.cpu.itb.stage2_mmu.stage2_tlb.inst_misses            0                       # ITB inst misses
system.cpu.itb.stage2_mmu.stage2_tlb.misses            0                       # DTB misses
system.cpu.itb.stage2_mmu.stage2_tlb.perms_faults            0                       # Number of TLB faults due to permissions restrictions
system.cpu.itb.stage2_mmu.stage2_tlb.prefetch_faults            0                       # Number of TLB faults due to prefetch
system.cpu.itb.stage2_mmu.stage2_tlb.read_accesses            0                       # DTB read accesses
system.cpu.itb.stage2_mmu.stage2_tlb.read_hits            0                       # DTB read hits
system.cpu.itb.stage2_mmu.stage2_tlb.read_misses            0                       # DTB read misses
system.cpu.itb.stage2_mmu.stage2_tlb.walker.walkRequestOrigin_Requested::Data            0                       # Table walker requests started/completed, data/inst
system.cpu.itb.stage2_mmu.stage2_tlb.walker.walkRequestOrigin_Requested::Inst            0                       # Table walker requests started/completed, data/inst
system.cpu.itb.stage2_mmu.stage2_tlb.walker.walkRequestOrigin_Requested::total            0                       # Table walker requests started/completed, data/inst
system.cpu.itb.stage2_mmu.stage2_tlb.walker.walkRequestOrigin_Completed::Data            0                       # Table walker requests started/completed, data/inst
system.cpu.itb.stage2_mmu.stage2_tlb.walker.walkRequestOrigin_Completed::Inst            0                       # Table walker requests started/completed, data/inst
system.cpu.itb.stage2_mmu.stage2_tlb.walker.walkRequestOrigin_Completed::total            0                       # Table walker requests started/completed, data/inst
system.cpu.itb.stage2_mmu.stage2_tlb.walker.walkRequestOrigin::total            0                       # Table walker requests started/completed, data/inst
system.cpu.itb.stage2_mmu.stage2_tlb.walker.walks            0                       # Table walker walks requested
system.cpu.itb.stage2_mmu.stage2_tlb.write_accesses            0                       # DTB write accesses
system.cpu.itb.stage2_mmu.stage2_tlb.write_hits            0                       # DTB write hits
system.cpu.itb.stage2_mmu.stage2_tlb.write_misses            0                       # DTB write misses
system.cpu.itb.walker.walkRequestOrigin_Requested::Data            0                       # Table walker requests started/completed, data/inst
system.cpu.itb.walker.walkRequestOrigin_Requested::Inst            0                       # Table walker requests started/completed, data/inst
system.cpu.itb.walker.walkRequestOrigin_Requested::total            0                       # Table walker requests started/completed, data/inst
system.cpu.itb.walker.walkRequestOrigin_Completed::Data            0                       # Table walker requests started/completed, data/inst
system.cpu.itb.walker.walkRequestOrigin_Completed::Inst            0                       # Table walker requests started/completed, data/inst
system.cpu.itb.walker.walkRequestOrigin_Completed::total            0                       # Table walker requests started/completed, data/inst
system.cpu.itb.walker.walkRequestOrigin::total            0                       # Table walker requests started/completed, data/inst
system.cpu.itb.walker.walks                         0                       # Table walker walks requested
system.cpu.itb.write_accesses                       0                       # DTB write accesses
system.cpu.itb.write_hits                           0                       # DTB write hits
system.cpu.itb.write_misses                         0                       # DTB write misses
system.cpu.kern.inst.arm                            0                       # number of arm instructions executed
system.cpu.kern.inst.quiesce                      414                       # number of quiesce instructions executed
system.cpu.numCycles                          1486325                       # number of cpu cycles simulated
system.cpu.numFetchSuspends                       414                       # Number of times Execute suspended instruction fetching
system.cpu.numWorkItemsCompleted                    0                       # number of work items this cpu completed
system.cpu.numWorkItemsStarted                      0                       # number of work items this cpu started
system.cpu.op_class_0::No_OpClass                   0      0.00%      0.00% # Class of committed instruction
system.cpu.op_class_0::IntAlu                  444301     72.63%     72.63% # Class of committed instruction
system.cpu.op_class_0::IntMult                   1233      0.20%     72.83% # Class of committed instruction
system.cpu.op_class_0::IntDiv                       0      0.00%     72.83% # Class of committed instruction
system.cpu.op_class_0::FloatAdd                     0      0.00%     72.83% # Class of committed instruction
system.cpu.op_class_0::FloatCmp                     0      0.00%     72.83% # Class of committed instruction
system.cpu.op_class_0::FloatCvt                     0      0.00%     72.83% # Class of committed instruction
system.cpu.op_class_0::FloatMult                    0      0.00%     72.83% # Class of committed instruction
system.cpu.op_class_0::FloatMultAcc                 0      0.00%     72.83% # Class of committed instruction
system.cpu.op_class_0::FloatDiv                     0      0.00%     72.83% # Class of committed instruction
system.cpu.op_class_0::FloatMisc                    0      0.00%     72.83% # Class of committed instruction
system.cpu.op_class_0::FloatSqrt                    0      0.00%     72.83% # Class of committed instruction
system.cpu.op_class_0::SimdAdd                      0      0.00%     72.83% # Class of committed instruction
system.cpu.op_class_0::SimdAddAcc                   0      0.00%     72.83% # Class of committed instruction
system.cpu.op_class_0::SimdAlu                      0      0.00%     72.83% # Class of committed instruction
system.cpu.op_class_0::SimdCmp                      0      0.00%     72.83% # Class of committed instruction
system.cpu.op_class_0::SimdCvt                      0      0.00%     72.83% # Class of committed instruction
system.cpu.op_class_0::SimdMisc                     0      0.00%     72.83% # Class of committed instruction
system.cpu.op_class_0::SimdMult                     0      0.00%     72.83% # Class of committed instruction
system.cpu.op_class_0::SimdMultAcc                  0      0.00%     72.83% # Class of committed instruction
system.cpu.op_class_0::SimdShift                    0      0.00%     72.83% # Class of committed instruction
system.cpu.op_class_0::SimdShiftAcc                 0      0.00%     72.83% # Class of committed instruction
system.cpu.op_class_0::SimdDiv                      0      0.00%     72.83% # Class of committed instruction
system.cpu.op_class_0::SimdSqrt                     0      0.00%     72.83% # Class of committed instruction
system.cpu.op_class_0::SimdFloatAdd                 0      0.00%     72.83% # Class of committed instruction
system.cpu.op_class_0::SimdFloatAlu                 0      0.00%     72.83% # Class of committed instruction
system.cpu.op_class_0::SimdFloatCmp                 0      0.00%     72.83% # Class of committed instruction
system.cpu.op_class_0::SimdFloatCvt                 0      0.00%     72.83% # Class of committed instruction
system.cpu.op_class_0::SimdFloatDiv                 0      0.00%     72.83% # Class of committed instruction
system.cpu.op_class_0::SimdFloatMisc                0      0.00%     72.83% # Class of committed instruction
system.cpu.op_class_0::SimdFloatMult                0      0.00%     72.83% # Class of committed instruction
system.cpu.op_class_0::SimdFloatMultAcc             0      0.00%     72.83% # Class of committed instruction
system.cpu.op_class_0::SimdFloatSqrt                0      0.00%     72.83% # Class of committed instruction
system.cpu.op_class_0::SimdReduceAdd                0      0.00%     72.83% # Class of committed instruction
system.cpu.op_class_0::SimdReduceAlu                0      0.00%     72.83% # Class of committed instruction
system.cpu.op_class_0::SimdReduceCmp                0      0.00%     72.83% # Class of committed instruction
system.cpu.op_class_0::SimdFloatReduceAdd            0      0.00%     72.83% # Class of committed instruction
system.cpu.op_class_0::SimdFloatReduceCmp            0      0.00%     72.83% # Class of committed instruction
system.cpu.op_class_0::SimdAes                      0      0.00%     72.83% # Class of committed instruction
system.cpu.op_class_0::SimdAesMix                   0      0.00%     72.83% # Class of committed instruction
system.cpu.op_class_0::SimdSha1Hash                 0      0.00%     72.83% # Class of committed instruction
system.cpu.op_class_0::SimdSha1Hash2                0      0.00%     72.83% # Class of committed instruction
system.cpu.op_class_0::SimdSha256Hash               0      0.00%     72.83% # Class of committed instruction
system.cpu.op_class_0::SimdSha256Hash2              0      0.00%     72.83% # Class of committed instruction
system.cpu.op_class_0::SimdShaSigma2                0      0.00%     72.83% # Class of committed instruction
system.cpu.op_class_0::SimdShaSigma3                0      0.00%     72.83% # Class of committed instruction
system.cpu.op_class_0::SimdPredAlu                  0      0.00%     72.83% # Class of committed instruction
system.cpu.op_class_0::MemRead                 100368     16.41%     89.24% # Class of committed instruction
system.cpu.op_class_0::MemWrite                 65831     10.76%    100.00% # Class of committed instruction
system.cpu.op_class_0::FloatMemRead                 0      0.00%    100.00% # Class of committed instruction
system.cpu.op_class_0::FloatMemWrite                0      0.00%    100.00% # Class of committed instruction
system.cpu.op_class_0::IprAccess                    0      0.00%    100.00% # Class of committed instruction
system.cpu.op_class_0::InstPrefetch                 0      0.00%    100.00% # Class of committed instruction
system.cpu.op_class_0::total                   611733                       # Class of committed instruction
system.cpu.quiesceCycles                     33694347                       # Total number of cycles that CPU has spent quiesced or waiting for an interrupt
system.cpu.tickCycles                          704906                       # Number of cycles that the object actually ticked
system.membus.snoop_filter.hit_multi_requests           13                       # Number of requests hitting in the snoop filter with multiple (>1) holders of the requested data.
system.membus.snoop_filter.hit_multi_snoops            0                       # Number of snoops hitting in the snoop filter with multiple (>1) holders of the requested data.
system.membus.snoop_filter.hit_single_requests          679                       # Number of requests hitting in the snoop filter with a single holder of the requested data.
system.membus.snoop_filter.hit_single_snoops            0                       # Number of snoops hitting in the snoop filter with a single holder of the requested data.
system.membus.snoop_filter.tot_requests          1632                       # Total number of requests made to the snoop filter.
system.membus.snoop_filter.tot_snoops               0                       # Total number of snoops made to the snoop filter.
system.bridge.pwrStateResidencyTicks::UNDEFINED  28174669375                       # Cumulative time (in ticks) in various power states
system.voltage_domain.voltage                       1                       # Voltage in Volts
system.iocache.pwrStateResidencyTicks::UNDEFINED  28174669375                       # Cumulative time (in ticks) in various power states
system.iocache.blocked_cycles::no_mshrs             0                       # number of cycles access was blocked
system.iocache.blocked_cycles::no_targets            0                       # number of cycles access was blocked
system.iocache.blocked::no_mshrs                    0                       # number of cycles access was blocked
system.iocache.blocked::no_targets                  0                       # number of cycles access was blocked
system.iocache.avg_blocked_cycles::no_mshrs          nan                       # average number of cycles each access was blocked
system.iocache.avg_blocked_cycles::no_targets          nan                       # average number of cycles each access was blocked
system.iocache.replacements                         0                       # number of replacements
system.iocache.tags.pwrStateResidencyTicks::UNDEFINED  28174669375                       # Cumulative time (in ticks) in various power states
system.iocache.tags.tagsinuse                       0                       # Cycle average of tags in use
system.iocache.tags.total_refs                      0                       # Total number of references to valid blocks.
system.iocache.tags.sampled_refs                    0                       # Sample count of references to valid blocks.
system.iocache.tags.avg_refs                      nan                       # Average number of references to valid blocks.
system.iocache.tags.warmup_cycle                    0                       # Cycle when the warmup percentage was hit.
system.iocache.tags.tag_accesses                    0                       # Number of tag accesses
system.iocache.tags.data_accesses                   0                       # Number of data accesses
system.membus.pwrStateResidencyTicks::UNDEFINED  28174669375                       # Cumulative time (in ticks) in various power states
system.membus.trans_dist::ReadReq              149481                       # Transaction distribution
system.membus.trans_dist::ReadResp             150234                       # Transaction distribution
system.membus.trans_dist::WriteReq              66786                       # Transaction distribution
system.membus.trans_dist::WriteResp             66786                       # Transaction distribution
system.membus.trans_dist::WritebackDirty          368                       # Transaction distribution
system.membus.trans_dist::CleanEvict              292                       # Transaction distribution
system.membus.trans_dist::ReadExReq               213                       # Transaction distribution
system.membus.trans_dist::ReadExResp              213                       # Transaction distribution
system.membus.trans_dist::ReadCleanReq            318                       # Transaction distribution
system.membus.trans_dist::ReadSharedReq           435                       # Transaction distribution
system.membus.pkt_count_system.cpu.icache.mem_side::system.realview.bootmem.port          747                       # Packet count per connected master and slave (bytes)
system.membus.pkt_count_system.cpu.icache.mem_side::total          747                       # Packet count per connected master and slave (bytes)
system.membus.pkt_count_system.cpu.dcache.mem_side::system.realview.bootmem.port           58                       # Packet count per connected master and slave (bytes)
system.membus.pkt_count_system.cpu.dcache.mem_side::system.realview.gic.pio         1768                       # Packet count per connected master and slave (bytes)
system.membus.pkt_count_system.cpu.dcache.mem_side::system.mem_ctrls.port         1787                       # Packet count per connected master and slave (bytes)
system.membus.pkt_count_system.cpu.dcache.mem_side::system.acctest.mem2cls.slave         7248                       # Packet count per connected master and slave (bytes)
system.membus.pkt_count_system.cpu.dcache.mem_side::total        10861                       # Packet count per connected master and slave (bytes)
system.membus.pkt_count_system.acctest.coherency_bus.master[0]::system.mem_ctrls.port       423518                       # Packet count per connected master and slave (bytes)
system.membus.pkt_count_system.acctest.coherency_bus.master[0]::total       423518                       # Packet count per connected master and slave (bytes)
system.membus.pkt_count::total                 435126                       # Packet count per connected master and slave (bytes)
system.membus.pkt_size_system.cpu.icache.mem_side::system.realview.bootmem.port        20352                       # Cumulative packet size per connected master and slave (bytes)
system.membus.pkt_size_system.cpu.icache.mem_side::total        20352                       # Cumulative packet size per connected master and slave (bytes)
system.membus.pkt_size_system.cpu.dcache.mem_side::system.realview.bootmem.port         1600                       # Cumulative packet size per connected master and slave (bytes)
system.membus.pkt_size_system.cpu.dcache.mem_side::system.realview.gic.pio         3536                       # Cumulative packet size per connected master and slave (bytes)
system.membus.pkt_size_system.cpu.dcache.mem_side::system.mem_ctrls.port        63424                       # Cumulative packet size per connected master and slave (bytes)
system.membus.pkt_size_system.cpu.dcache.mem_side::system.acctest.mem2cls.slave         9771                       # Cumulative packet size per connected master and slave (bytes)
system.membus.pkt_size_system.cpu.dcache.mem_side::total        78331                       # Cumulative packet size per connected master and slave (bytes)
system.membus.pkt_size_system.acctest.coherency_bus.master[0]::system.mem_ctrls.port     13551976                       # Cumulative packet size per connected master and slave (bytes)
system.membus.pkt_size_system.acctest.coherency_bus.master[0]::total     13551976                       # Cumulative packet size per connected master and slave (bytes)
system.membus.pkt_size::total                13650659                       # Cumulative packet size per connected master and slave (bytes)
system.membus.snoops                                0                       # Total snoops (count)
system.membus.snoopTraffic                          0                       # Total snoop traffic (bytes)
system.membus.snoop_fanout::samples            217530                       # Request fanout histogram
system.membus.snoop_fanout::mean             0.000147                       # Request fanout histogram
system.membus.snoop_fanout::stdev            0.012128                       # Request fanout histogram
system.membus.snoop_fanout::underflows              0      0.00%      0.00% # Request fanout histogram
system.membus.snoop_fanout::0                  217498     99.99%     99.99% # Request fanout histogram
system.membus.snoop_fanout::1                      32      0.01%    100.00% # Request fanout histogram
system.membus.snoop_fanout::2                       0      0.00%    100.00% # Request fanout histogram
system.membus.snoop_fanout::3                       0      0.00%    100.00% # Request fanout histogram
system.membus.snoop_fanout::4                       0      0.00%    100.00% # Request fanout histogram
system.membus.snoop_fanout::overflows               0      0.00%    100.00% # Request fanout histogram
system.membus.snoop_fanout::min_value               0                       # Request fanout histogram
system.membus.snoop_fanout::max_value               1                       # Request fanout histogram
system.membus.snoop_fanout::total              217530                       # Request fanout histogram
system.membus.reqLayer6.occupancy           524618255                       # Layer occupancy (ticks)
system.membus.reqLayer6.utilization               2.4                       # Layer utilization (%)
system.membus.reqLayer7.occupancy             9146500                       # Layer occupancy (ticks)
system.membus.reqLayer7.utilization               0.0                       # Layer utilization (%)
system.membus.reqLayer1.occupancy              712015                       # Layer occupancy (ticks)
system.membus.reqLayer1.utilization               0.0                       # Layer utilization (%)
system.membus.reqLayer2.occupancy             1737000                       # Layer occupancy (ticks)
system.membus.reqLayer2.utilization               0.0                       # Layer utilization (%)
system.membus.badaddr_responder.pwrStateResidencyTicks::UNDEFINED  28174669375                       # Cumulative time (in ticks) in various power states
system.membus.respLayer4.occupancy            8642040                       # Layer occupancy (ticks)
system.membus.respLayer4.utilization              0.0                       # Layer utilization (%)
system.membus.respLayer7.occupancy          895094435                       # Layer occupancy (ticks)
system.membus.respLayer7.utilization              4.1                       # Layer utilization (%)
system.membus.respLayer3.occupancy            1599000                       # Layer occupancy (ticks)
system.membus.respLayer3.utilization              0.0                       # Layer utilization (%)
system.acctest.harris_non_max0_spm.pwrStateResidencyTicks::UNDEFINED  28174669375                       # Cumulative time (in ticks) in various power states
system.acctest.harris_non_max0_spm.bytes_read::.acctest.harris_non_max0.system.acctest.harris_non_max0        65536                       # Number of bytes read from this memory
system.acctest.harris_non_max0_spm.bytes_read::.acctest.harris_non_max0_dma        16384                       # Number of bytes read from this memory
system.acctest.harris_non_max0_spm.bytes_read::total        81920                       # Number of bytes read from this memory
system.acctest.harris_non_max0_spm.bytes_written::.acctest.harris_non_max0.system.acctest.harris_non_max0        16384                       # Number of bytes written to this memory
system.acctest.harris_non_max0_spm.bytes_written::.acctest.harris_non_max0_dma        65536                       # Number of bytes written to this memory
system.acctest.harris_non_max0_spm.bytes_written::total        81920                       # Number of bytes written to this memory
system.acctest.harris_non_max0_spm.num_reads::.acctest.harris_non_max0.system.acctest.harris_non_max0        16384                       # Number of read requests responded to by this memory
system.acctest.harris_non_max0_spm.num_reads::.acctest.harris_non_max0_dma          512                       # Number of read requests responded to by this memory
system.acctest.harris_non_max0_spm.num_reads::total        16896                       # Number of read requests responded to by this memory
system.acctest.harris_non_max0_spm.num_writes::.acctest.harris_non_max0.system.acctest.harris_non_max0        16384                       # Number of write requests responded to by this memory
system.acctest.harris_non_max0_spm.num_writes::.acctest.harris_non_max0_dma         2048                       # Number of write requests responded to by this memory
system.acctest.harris_non_max0_spm.num_writes::total        18432                       # Number of write requests responded to by this memory
system.acctest.harris_non_max0_spm.bw_read::.acctest.harris_non_max0.system.acctest.harris_non_max0      2980546                       # Total read bandwidth from this memory (bytes/s)
system.acctest.harris_non_max0_spm.bw_read::.acctest.harris_non_max0_dma       745136                       # Total read bandwidth from this memory (bytes/s)
system.acctest.harris_non_max0_spm.bw_read::total      3725682                       # Total read bandwidth from this memory (bytes/s)
system.acctest.harris_non_max0_spm.bw_write::.acctest.harris_non_max0.system.acctest.harris_non_max0       745136                       # Write bandwidth from this memory (bytes/s)
system.acctest.harris_non_max0_spm.bw_write::.acctest.harris_non_max0_dma      2980546                       # Write bandwidth from this memory (bytes/s)
system.acctest.harris_non_max0_spm.bw_write::total      3725682                       # Write bandwidth from this memory (bytes/s)
system.acctest.harris_non_max0_spm.bw_total::.acctest.harris_non_max0.system.acctest.harris_non_max0      3725682                       # Total bandwidth to/from this memory (bytes/s)
system.acctest.harris_non_max0_spm.bw_total::.acctest.harris_non_max0_dma      3725682                       # Total bandwidth to/from this memory (bytes/s)
system.acctest.harris_non_max0_spm.bw_total::total      7451364                       # Total bandwidth to/from this memory (bytes/s)
system.acctest.elem_matrix2_spm.pwrStateResidencyTicks::UNDEFINED  28174669375                       # Cumulative time (in ticks) in various power states
system.acctest.elem_matrix3_spm.pwrStateResidencyTicks::UNDEFINED  28174669375                       # Cumulative time (in ticks) in various power states
system.acctest.local_bus.pwrStateResidencyTicks::UNDEFINED  28174669375                       # Cumulative time (in ticks) in various power states
system.acctest.local_bus.trans_dist::ReadReq       192000                       # Transaction distribution
system.acctest.local_bus.trans_dist::ReadResp       192000                       # Transaction distribution
system.acctest.local_bus.trans_dist::WriteReq       368259                       # Transaction distribution
system.acctest.local_bus.trans_dist::WriteResp       368259                       # Transaction distribution
system.acctest.local_bus.pkt_count_system.acctest.mem2cls.master::system.acctest.convolution0.pio          300                       # Packet count per connected master and slave (bytes)
system.acctest.local_bus.pkt_count_system.acctest.mem2cls.master::system.acctest.convolution0_dma.pio          504                       # Packet count per connected master and slave (bytes)
system.acctest.local_bus.pkt_count_system.acctest.mem2cls.master::system.acctest.elem_matrix0.pio         3280                       # Packet count per connected master and slave (bytes)
system.acctest.local_bus.pkt_count_system.acctest.mem2cls.master::system.acctest.elem_matrix0_dma.pio         2996                       # Packet count per connected master and slave (bytes)
system.acctest.local_bus.pkt_count_system.acctest.mem2cls.master::system.acctest.grayscale0.pio           20                       # Packet count per connected master and slave (bytes)
system.acctest.local_bus.pkt_count_system.acctest.mem2cls.master::system.acctest.grayscale0_dma.pio           56                       # Packet count per connected master and slave (bytes)
system.acctest.local_bus.pkt_count_system.acctest.mem2cls.master::system.acctest.harris_non_max0.pio           12                       # Packet count per connected master and slave (bytes)
system.acctest.local_bus.pkt_count_system.acctest.mem2cls.master::system.acctest.harris_non_max0_dma.pio           28                       # Packet count per connected master and slave (bytes)
system.acctest.local_bus.pkt_count_system.acctest.mem2cls.master::system.acctest.isp0.pio           24                       # Packet count per connected master and slave (bytes)
system.acctest.local_bus.pkt_count_system.acctest.mem2cls.master::system.acctest.isp0_dma.pio           28                       # Packet count per connected master and slave (bytes)
system.acctest.local_bus.pkt_count_system.acctest.mem2cls.master::total         7248                       # Packet count per connected master and slave (bytes)
system.acctest.local_bus.pkt_count_system.acctest.convolution0_dma.dma::system.acctest.convolution0_spm.port        86128                       # Packet count per connected master and slave (bytes)
system.acctest.local_bus.pkt_count_system.acctest.convolution0_dma.dma::system.acctest.elem_matrix0_spm.port        28672                       # Packet count per connected master and slave (bytes)
system.acctest.local_bus.pkt_count_system.acctest.convolution0_dma.dma::system.acctest.grayscale0_spm.port        12288                       # Packet count per connected master and slave (bytes)
system.acctest.local_bus.pkt_count_system.acctest.convolution0_dma.dma::total       127088                       # Packet count per connected master and slave (bytes)
system.acctest.local_bus.pkt_count_system.acctest.elem_matrix0_dma.dma::system.acctest.convolution0_spm.port        61440                       # Packet count per connected master and slave (bytes)
system.acctest.local_bus.pkt_count_system.acctest.elem_matrix0_dma.dma::system.acctest.elem_matrix0_spm.port       872450                       # Packet count per connected master and slave (bytes)
system.acctest.local_bus.pkt_count_system.acctest.elem_matrix0_dma.dma::system.acctest.grayscale0_spm.port        20480                       # Packet count per connected master and slave (bytes)
system.acctest.local_bus.pkt_count_system.acctest.elem_matrix0_dma.dma::total       954370                       # Packet count per connected master and slave (bytes)
system.acctest.local_bus.pkt_count_system.acctest.grayscale0_dma.dma::system.acctest.grayscale0_spm.port        14336                       # Packet count per connected master and slave (bytes)
system.acctest.local_bus.pkt_count_system.acctest.grayscale0_dma.dma::system.acctest.isp0_spm.port         6144                       # Packet count per connected master and slave (bytes)
system.acctest.local_bus.pkt_count_system.acctest.grayscale0_dma.dma::total        20480                       # Packet count per connected master and slave (bytes)
system.acctest.local_bus.pkt_count_system.acctest.harris_non_max0_dma.dma::system.acctest.elem_matrix0_spm.port         4096                       # Packet count per connected master and slave (bytes)
system.acctest.local_bus.pkt_count_system.acctest.harris_non_max0_dma.dma::system.acctest.harris_non_max0_spm.port         5120                       # Packet count per connected master and slave (bytes)
system.acctest.local_bus.pkt_count_system.acctest.harris_non_max0_dma.dma::total         9216                       # Packet count per connected master and slave (bytes)
system.acctest.local_bus.pkt_count_system.acctest.isp0_dma.dma::system.acctest.isp0_spm.port         2116                       # Packet count per connected master and slave (bytes)
system.acctest.local_bus.pkt_count_system.acctest.isp0_dma.dma::total         2116                       # Packet count per connected master and slave (bytes)
system.acctest.local_bus.pkt_count::total      1120518                       # Packet count per connected master and slave (bytes)
system.acctest.local_bus.pkt_size_system.acctest.mem2cls.master::system.acctest.convolution0.pio          420                       # Cumulative packet size per connected master and slave (bytes)
system.acctest.local_bus.pkt_size_system.acctest.mem2cls.master::system.acctest.convolution0_dma.pio          792                       # Cumulative packet size per connected master and slave (bytes)
system.acctest.local_bus.pkt_size_system.acctest.mem2cls.master::system.acctest.elem_matrix0.pio         3608                       # Cumulative packet size per connected master and slave (bytes)
system.acctest.local_bus.pkt_size_system.acctest.mem2cls.master::system.acctest.elem_matrix0_dma.pio         4708                       # Cumulative packet size per connected master and slave (bytes)
system.acctest.local_bus.pkt_size_system.acctest.mem2cls.master::system.acctest.grayscale0.pio           22                       # Cumulative packet size per connected master and slave (bytes)
system.acctest.local_bus.pkt_size_system.acctest.mem2cls.master::system.acctest.grayscale0_dma.pio           88                       # Cumulative packet size per connected master and slave (bytes)
system.acctest.local_bus.pkt_size_system.acctest.mem2cls.master::system.acctest.harris_non_max0.pio           15                       # Cumulative packet size per connected master and slave (bytes)
system.acctest.local_bus.pkt_size_system.acctest.mem2cls.master::system.acctest.harris_non_max0_dma.pio           44                       # Cumulative packet size per connected master and slave (bytes)
system.acctest.local_bus.pkt_size_system.acctest.mem2cls.master::system.acctest.isp0.pio           30                       # Cumulative packet size per connected master and slave (bytes)
system.acctest.local_bus.pkt_size_system.acctest.mem2cls.master::system.acctest.isp0_dma.pio           44                       # Cumulative packet size per connected master and slave (bytes)
system.acctest.local_bus.pkt_size_system.acctest.mem2cls.master::total         9771                       # Cumulative packet size per connected master and slave (bytes)
system.acctest.local_bus.pkt_size_system.acctest.convolution0_dma.dma::system.acctest.convolution0_spm.port      1377628                       # Cumulative packet size per connected master and slave (bytes)
system.acctest.local_bus.pkt_size_system.acctest.convolution0_dma.dma::system.acctest.elem_matrix0_spm.port       458752                       # Cumulative packet size per connected master and slave (bytes)
system.acctest.local_bus.pkt_size_system.acctest.convolution0_dma.dma::system.acctest.grayscale0_spm.port       196608                       # Cumulative packet size per connected master and slave (bytes)
system.acctest.local_bus.pkt_size_system.acctest.convolution0_dma.dma::total      2032988                       # Cumulative packet size per connected master and slave (bytes)
system.acctest.local_bus.pkt_size_system.acctest.elem_matrix0_dma.dma::system.acctest.convolution0_spm.port       983040                       # Cumulative packet size per connected master and slave (bytes)
system.acctest.local_bus.pkt_size_system.acctest.elem_matrix0_dma.dma::system.acctest.elem_matrix0_spm.port     13959172                       # Cumulative packet size per connected master and slave (bytes)
system.acctest.local_bus.pkt_size_system.acctest.elem_matrix0_dma.dma::system.acctest.grayscale0_spm.port       327680                       # Cumulative packet size per connected master and slave (bytes)
system.acctest.local_bus.pkt_size_system.acctest.elem_matrix0_dma.dma::total     15269892                       # Cumulative packet size per connected master and slave (bytes)
system.acctest.local_bus.pkt_size_system.acctest.grayscale0_dma.dma::system.acctest.grayscale0_spm.port       229376                       # Cumulative packet size per connected master and slave (bytes)
system.acctest.local_bus.pkt_size_system.acctest.grayscale0_dma.dma::system.acctest.isp0_spm.port        98304                       # Cumulative packet size per connected master and slave (bytes)
system.acctest.local_bus.pkt_size_system.acctest.grayscale0_dma.dma::total       327680                       # Cumulative packet size per connected master and slave (bytes)
system.acctest.local_bus.pkt_size_system.acctest.harris_non_max0_dma.dma::system.acctest.elem_matrix0_spm.port        65536                       # Cumulative packet size per connected master and slave (bytes)
system.acctest.local_bus.pkt_size_system.acctest.harris_non_max0_dma.dma::system.acctest.harris_non_max0_spm.port        81920                       # Cumulative packet size per connected master and slave (bytes)
system.acctest.local_bus.pkt_size_system.acctest.harris_non_max0_dma.dma::total       147456                       # Cumulative packet size per connected master and slave (bytes)
system.acctest.local_bus.pkt_size_system.acctest.isp0_dma.dma::system.acctest.isp0_spm.port        33800                       # Cumulative packet size per connected master and slave (bytes)
system.acctest.local_bus.pkt_size_system.acctest.isp0_dma.dma::total        33800                       # Cumulative packet size per connected master and slave (bytes)
system.acctest.local_bus.pkt_size::total     17821587                       # Cumulative packet size per connected master and slave (bytes)
system.acctest.local_bus.occupancy         1794939750                       # Network occupancy (ticks)
system.acctest.local_bus.utilization              8.2                       # Network utilization (%)
system.acctest.local_bus.numRequests          1224038                       # Number of requests
system.acctest.local_bus.averageQueuingDelay          819                       # Average queuing delay (ticks)
system.acctest.local_bus.tailQueuingDelay        11000                       # Tail queuing delay (ticks)
system.acctest.local_bus.averageQueueLength         0.05                       # Average queue length
system.acctest.local_bus.maxQueueLength             6                       # Max queue length
system.acctest.local_bus.reqLayer0.occupancy   1515143760                       # Layer occupancy (ticks)
system.acctest.local_bus.reqLayer0.utilization          6.9                       # Layer utilization (%)
system.acctest.local_bus.respLayer0.occupancy    945795000                       # Layer occupancy (ticks)
system.acctest.local_bus.respLayer0.utilization          4.3                       # Layer utilization (%)
system.acctest.isp0.pwrStateResidencyTicks::UNDEFINED  28174669375                       # Cumulative time (in ticks) in various power states
system.acctest.edge_tracking0.pwrStateResidencyTicks::UNDEFINED  28174669375                       # Cumulative time (in ticks) in various power states
system.acctest.grayscale0_spm.pwrStateResidencyTicks::UNDEFINED  28174669375                       # Cumulative time (in ticks) in various power states
system.acctest.grayscale0_spm.bytes_read::.acctest.convolution0_dma       196608                       # Number of bytes read from this memory
system.acctest.grayscale0_spm.bytes_read::.acctest.elem_matrix0_dma       327680                       # Number of bytes read from this memory
system.acctest.grayscale0_spm.bytes_read::.acctest.grayscale0.system.acctest.grayscale0        98304                       # Number of bytes read from this memory
system.acctest.grayscale0_spm.bytes_read::.acctest.grayscale0_dma       131072                       # Number of bytes read from this memory
system.acctest.grayscale0_spm.bytes_read::total       753664                       # Number of bytes read from this memory
system.acctest.grayscale0_spm.bytes_written::.acctest.grayscale0.system.acctest.grayscale0       131072                       # Number of bytes written to this memory
system.acctest.grayscale0_spm.bytes_written::.acctest.grayscale0_dma        98304                       # Number of bytes written to this memory
system.acctest.grayscale0_spm.bytes_written::total       229376                       # Number of bytes written to this memory
system.acctest.grayscale0_spm.num_reads::.acctest.convolution0_dma         6144                       # Number of read requests responded to by this memory
system.acctest.grayscale0_spm.num_reads::.acctest.elem_matrix0_dma        10240                       # Number of read requests responded to by this memory
system.acctest.grayscale0_spm.num_reads::.acctest.grayscale0.system.acctest.grayscale0        98304                       # Number of read requests responded to by this memory
system.acctest.grayscale0_spm.num_reads::.acctest.grayscale0_dma         4096                       # Number of read requests responded to by this memory
system.acctest.grayscale0_spm.num_reads::total       118784                       # Number of read requests responded to by this memory
system.acctest.grayscale0_spm.num_writes::.acctest.grayscale0.system.acctest.grayscale0        32768                       # Number of write requests responded to by this memory
system.acctest.grayscale0_spm.num_writes::.acctest.grayscale0_dma         3072                       # Number of write requests responded to by this memory
system.acctest.grayscale0_spm.num_writes::total        35840                       # Number of write requests responded to by this memory
system.acctest.grayscale0_spm.bw_read::.acctest.convolution0_dma      8941637                       # Total read bandwidth from this memory (bytes/s)
system.acctest.grayscale0_spm.bw_read::.acctest.elem_matrix0_dma     14902728                       # Total read bandwidth from this memory (bytes/s)
system.acctest.grayscale0_spm.bw_read::.acctest.grayscale0.system.acctest.grayscale0      4470819                       # Total read bandwidth from this memory (bytes/s)
system.acctest.grayscale0_spm.bw_read::.acctest.grayscale0_dma      5961091                       # Total read bandwidth from this memory (bytes/s)
system.acctest.grayscale0_spm.bw_read::total     34276275                       # Total read bandwidth from this memory (bytes/s)
system.acctest.grayscale0_spm.bw_write::.acctest.grayscale0.system.acctest.grayscale0      5961091                       # Write bandwidth from this memory (bytes/s)
system.acctest.grayscale0_spm.bw_write::.acctest.grayscale0_dma      4470819                       # Write bandwidth from this memory (bytes/s)
system.acctest.grayscale0_spm.bw_write::total     10431910                       # Write bandwidth from this memory (bytes/s)
system.acctest.grayscale0_spm.bw_total::.acctest.convolution0_dma      8941637                       # Total bandwidth to/from this memory (bytes/s)
system.acctest.grayscale0_spm.bw_total::.acctest.elem_matrix0_dma     14902728                       # Total bandwidth to/from this memory (bytes/s)
system.acctest.grayscale0_spm.bw_total::.acctest.grayscale0.system.acctest.grayscale0     10431910                       # Total bandwidth to/from this memory (bytes/s)
system.acctest.grayscale0_spm.bw_total::.acctest.grayscale0_dma     10431910                       # Total bandwidth to/from this memory (bytes/s)
system.acctest.grayscale0_spm.bw_total::total     44708185                       # Total bandwidth to/from this memory (bytes/s)
system.acctest.elem_matrix1_dma.pwrStateResidencyTicks::UNDEFINED  28174669375                       # Cumulative time (in ticks) in various power states
system.acctest.mem2cls.pwrStateResidencyTicks::UNDEFINED  28174669375                       # Cumulative time (in ticks) in various power states
system.acctest.isp0_dma.pwrStateResidencyTicks::UNDEFINED  28174669375                       # Cumulative time (in ticks) in various power states
system.acctest.grayscale0_dma.pwrStateResidencyTicks::UNDEFINED  28174669375                       # Cumulative time (in ticks) in various power states
system.acctest.convolution0.pwrStateResidencyTicks::UNDEFINED  28174669375                       # Cumulative time (in ticks) in various power states
system.acctest.convolution1.pwrStateResidencyTicks::UNDEFINED  28174669375                       # Cumulative time (in ticks) in various power states
system.acctest.isp0_spm.pwrStateResidencyTicks::UNDEFINED  28174669375                       # Cumulative time (in ticks) in various power states
system.acctest.isp0_spm.bytes_read::.acctest.grayscale0_dma        98304                       # Number of bytes read from this memory
system.acctest.isp0_spm.bytes_read::.acctest.isp0.system.acctest.isp0       229376                       # Number of bytes read from this memory
system.acctest.isp0_spm.bytes_read::total       327680                       # Number of bytes read from this memory
system.acctest.isp0_spm.bytes_written::.acctest.isp0.system.acctest.isp0        98304                       # Number of bytes written to this memory
system.acctest.isp0_spm.bytes_written::.acctest.isp0_dma        33800                       # Number of bytes written to this memory
system.acctest.isp0_spm.bytes_written::total       132104                       # Number of bytes written to this memory
system.acctest.isp0_spm.num_reads::.acctest.grayscale0_dma         3072                       # Number of read requests responded to by this memory
system.acctest.isp0_spm.num_reads::.acctest.isp0.system.acctest.isp0       229376                       # Number of read requests responded to by this memory
system.acctest.isp0_spm.num_reads::total       232448                       # Number of read requests responded to by this memory
system.acctest.isp0_spm.num_writes::.acctest.isp0.system.acctest.isp0        98304                       # Number of write requests responded to by this memory
system.acctest.isp0_spm.num_writes::.acctest.isp0_dma         1058                       # Number of write requests responded to by this memory
system.acctest.isp0_spm.num_writes::total        99362                       # Number of write requests responded to by this memory
system.acctest.isp0_spm.bw_read::.acctest.grayscale0_dma      4470819                       # Total read bandwidth from this memory (bytes/s)
system.acctest.isp0_spm.bw_read::.acctest.isp0.system.acctest.isp0     10431910                       # Total read bandwidth from this memory (bytes/s)
system.acctest.isp0_spm.bw_read::total       14902728                       # Total read bandwidth from this memory (bytes/s)
system.acctest.isp0_spm.bw_write::.acctest.isp0.system.acctest.isp0      4470819                       # Write bandwidth from this memory (bytes/s)
system.acctest.isp0_spm.bw_write::.acctest.isp0_dma      1537208                       # Write bandwidth from this memory (bytes/s)
system.acctest.isp0_spm.bw_write::total       6008026                       # Write bandwidth from this memory (bytes/s)
system.acctest.isp0_spm.bw_total::.acctest.grayscale0_dma      4470819                       # Total bandwidth to/from this memory (bytes/s)
system.acctest.isp0_spm.bw_total::.acctest.isp0.system.acctest.isp0     14902728                       # Total bandwidth to/from this memory (bytes/s)
system.acctest.isp0_spm.bw_total::.acctest.isp0_dma      1537208                       # Total bandwidth to/from this memory (bytes/s)
system.acctest.isp0_spm.bw_total::total      20910755                       # Total bandwidth to/from this memory (bytes/s)
system.acctest.coherency_bus.pwrStateResidencyTicks::UNDEFINED  28174669375                       # Cumulative time (in ticks) in various power states
system.acctest.coherency_bus.trans_dist::ReadReq       149039                       # Transaction distribution
system.acctest.coherency_bus.trans_dist::ReadResp       149039                       # Transaction distribution
system.acctest.coherency_bus.trans_dist::WriteReq        62720                       # Transaction distribution
system.acctest.coherency_bus.trans_dist::WriteResp        62720                       # Transaction distribution
system.acctest.coherency_bus.pkt_count_system.acctest.convolution0_dma.dma::system.membus.slave[7]        22584                       # Packet count per connected master and slave (bytes)
system.acctest.coherency_bus.pkt_count_system.acctest.elem_matrix0_dma.dma::system.membus.slave[7]       395266                       # Packet count per connected master and slave (bytes)
system.acctest.coherency_bus.pkt_count_system.acctest.grayscale0_dma.dma::system.membus.slave[7]         4096                       # Packet count per connected master and slave (bytes)
system.acctest.coherency_bus.pkt_count_system.acctest.harris_non_max0_dma.dma::system.membus.slave[7]          512                       # Packet count per connected master and slave (bytes)
system.acctest.coherency_bus.pkt_count_system.acctest.isp0_dma.dma::system.membus.slave[7]         1060                       # Packet count per connected master and slave (bytes)
system.acctest.coherency_bus.pkt_count::total       423518                       # Packet count per connected master and slave (bytes)
system.acctest.coherency_bus.pkt_size_system.acctest.convolution0_dma.dma::system.membus.slave[7]       722268                       # Cumulative packet size per connected master and slave (bytes)
system.acctest.coherency_bus.pkt_size_system.acctest.elem_matrix0_dma.dma::system.membus.slave[7]     12648452                       # Cumulative packet size per connected master and slave (bytes)
system.acctest.coherency_bus.pkt_size_system.acctest.grayscale0_dma.dma::system.membus.slave[7]       131072                       # Cumulative packet size per connected master and slave (bytes)
system.acctest.coherency_bus.pkt_size_system.acctest.harris_non_max0_dma.dma::system.membus.slave[7]        16384                       # Cumulative packet size per connected master and slave (bytes)
system.acctest.coherency_bus.pkt_size_system.acctest.isp0_dma.dma::system.membus.slave[7]        33800                       # Cumulative packet size per connected master and slave (bytes)
system.acctest.coherency_bus.pkt_size::total     13551976                       # Cumulative packet size per connected master and slave (bytes)
system.acctest.coherency_bus.snoops                 0                       # Total snoops (count)
system.acctest.coherency_bus.snoopTraffic            0                       # Total snoop traffic (bytes)
system.acctest.coherency_bus.snoop_fanout::samples       252587                       # Request fanout histogram
system.acctest.coherency_bus.snoop_fanout::mean            0                       # Request fanout histogram
system.acctest.coherency_bus.snoop_fanout::stdev            0                       # Request fanout histogram
system.acctest.coherency_bus.snoop_fanout::underflows            0      0.00%      0.00% # Request fanout histogram
system.acctest.coherency_bus.snoop_fanout::0       252587    100.00%    100.00% # Request fanout histogram
system.acctest.coherency_bus.snoop_fanout::overflows            0      0.00%    100.00% # Request fanout histogram
system.acctest.coherency_bus.snoop_fanout::min_value            0                       # Request fanout histogram
system.acctest.coherency_bus.snoop_fanout::max_value            0                       # Request fanout histogram
system.acctest.coherency_bus.snoop_fanout::total       252587                       # Request fanout histogram
system.acctest.coherency_bus.reqLayer0.occupancy    562052505                       # Layer occupancy (ticks)
system.acctest.coherency_bus.reqLayer0.utilization          2.6                       # Layer utilization (%)
system.acctest.coherency_bus.respLayer0.occupancy    807891000                       # Layer occupancy (ticks)
system.acctest.coherency_bus.respLayer0.utilization          3.7                       # Layer utilization (%)
system.acctest.convolution0_spm.pwrStateResidencyTicks::UNDEFINED  28174669375                       # Cumulative time (in ticks) in various power states
system.acctest.convolution0_spm.bytes_read::.acctest.convolution0.system.acctest.convolution0     44138208                       # Number of bytes read from this memory
system.acctest.convolution0_spm.bytes_read::.acctest.convolution0_dma       393216                       # Number of bytes read from this memory
system.acctest.convolution0_spm.bytes_read::.acctest.elem_matrix0_dma       983040                       # Number of bytes read from this memory
system.acctest.convolution0_spm.bytes_read::total     45514464                       # Number of bytes read from this memory
system.acctest.convolution0_spm.bytes_written::.acctest.convolution0.system.acctest.convolution0       983040                       # Number of bytes written to this memory
system.acctest.convolution0_spm.bytes_written::.acctest.convolution0_dma       984412                       # Number of bytes written to this memory
system.acctest.convolution0_spm.bytes_written::total      1967452                       # Number of bytes written to this memory
system.acctest.convolution0_spm.num_reads::.acctest.convolution0.system.acctest.convolution0     11034552                       # Number of read requests responded to by this memory
system.acctest.convolution0_spm.num_reads::.acctest.convolution0_dma        12288                       # Number of read requests responded to by this memory
system.acctest.convolution0_spm.num_reads::.acctest.elem_matrix0_dma        30720                       # Number of read requests responded to by this memory
system.acctest.convolution0_spm.num_reads::total     11077560                       # Number of read requests responded to by this memory
system.acctest.convolution0_spm.num_writes::.acctest.convolution0.system.acctest.convolution0       245760                       # Number of write requests responded to by this memory
system.acctest.convolution0_spm.num_writes::.acctest.convolution0_dma        30776                       # Number of write requests responded to by this memory
system.acctest.convolution0_spm.num_writes::total       276536                       # Number of write requests responded to by this memory
system.acctest.convolution0_spm.bw_read::.acctest.convolution0.system.acctest.convolution0   2007384418                       # Total read bandwidth from this memory (bytes/s)
system.acctest.convolution0_spm.bw_read::.acctest.convolution0_dma     17883274                       # Total read bandwidth from this memory (bytes/s)
system.acctest.convolution0_spm.bw_read::.acctest.elem_matrix0_dma     44708185                       # Total read bandwidth from this memory (bytes/s)
system.acctest.convolution0_spm.bw_read::total   2069975878                       # Total read bandwidth from this memory (bytes/s)
system.acctest.convolution0_spm.bw_write::.acctest.convolution0.system.acctest.convolution0     44708185                       # Write bandwidth from this memory (bytes/s)
system.acctest.convolution0_spm.bw_write::.acctest.convolution0_dma     44770583                       # Write bandwidth from this memory (bytes/s)
system.acctest.convolution0_spm.bw_write::total     89478768                       # Write bandwidth from this memory (bytes/s)
system.acctest.convolution0_spm.bw_total::.acctest.convolution0.system.acctest.convolution0   2052092604                       # Total bandwidth to/from this memory (bytes/s)
system.acctest.convolution0_spm.bw_total::.acctest.convolution0_dma     62653857                       # Total bandwidth to/from this memory (bytes/s)
system.acctest.convolution0_spm.bw_total::.acctest.elem_matrix0_dma     44708185                       # Total bandwidth to/from this memory (bytes/s)
system.acctest.convolution0_spm.bw_total::total   2159454646                       # Total bandwidth to/from this memory (bytes/s)
system.acctest.elem_matrix0_dma.pwrStateResidencyTicks::UNDEFINED  28174669375                       # Cumulative time (in ticks) in various power states
system.acctest.grayscale0.pwrStateResidencyTicks::UNDEFINED  28174669375                       # Cumulative time (in ticks) in various power states
system.acctest.canny_non_max0.pwrStateResidencyTicks::UNDEFINED  28174669375                       # Cumulative time (in ticks) in various power states
system.acctest.elem_matrix0_spm.pwrStateResidencyTicks::UNDEFINED  28174669375                       # Cumulative time (in ticks) in various power states
system.acctest.elem_matrix0_spm.bytes_read::.acctest.convolution0_dma       458752                       # Number of bytes read from this memory
system.acctest.elem_matrix0_spm.bytes_read::.acctest.elem_matrix0.system.acctest.elem_matrix0     18546692                       # Number of bytes read from this memory
system.acctest.elem_matrix0_spm.bytes_read::.acctest.elem_matrix0_dma      3473408                       # Number of bytes read from this memory
system.acctest.elem_matrix0_spm.bytes_read::.acctest.harris_non_max0_dma        65536                       # Number of bytes read from this memory
system.acctest.elem_matrix0_spm.bytes_read::total     22544388                       # Number of bytes read from this memory
system.acctest.elem_matrix0_spm.bytes_written::.acctest.elem_matrix0.system.acctest.elem_matrix0     10747904                       # Number of bytes written to this memory
system.acctest.elem_matrix0_spm.bytes_written::.acctest.elem_matrix0_dma     10485764                       # Number of bytes written to this memory
system.acctest.elem_matrix0_spm.bytes_written::total     21233668                       # Number of bytes written to this memory
system.acctest.elem_matrix0_spm.num_reads::.acctest.convolution0_dma        14336                       # Number of read requests responded to by this memory
system.acctest.elem_matrix0_spm.num_reads::.acctest.elem_matrix0.system.acctest.elem_matrix0      4636673                       # Number of read requests responded to by this memory
system.acctest.elem_matrix0_spm.num_reads::.acctest.elem_matrix0_dma       108544                       # Number of read requests responded to by this memory
system.acctest.elem_matrix0_spm.num_reads::.acctest.harris_non_max0_dma         2048                       # Number of read requests responded to by this memory
system.acctest.elem_matrix0_spm.num_reads::total      4761601                       # Number of read requests responded to by this memory
system.acctest.elem_matrix0_spm.num_writes::.acctest.elem_matrix0.system.acctest.elem_matrix0      2686976                       # Number of write requests responded to by this memory
system.acctest.elem_matrix0_spm.num_writes::.acctest.elem_matrix0_dma       327681                       # Number of write requests responded to by this memory
system.acctest.elem_matrix0_spm.num_writes::total      3014657                       # Number of write requests responded to by this memory
system.acctest.elem_matrix0_spm.bw_read::.acctest.convolution0_dma     20863820                       # Total read bandwidth from this memory (bytes/s)
system.acctest.elem_matrix0_spm.bw_read::.acctest.elem_matrix0.system.acctest.elem_matrix0    843494610                       # Total read bandwidth from this memory (bytes/s)
system.acctest.elem_matrix0_spm.bw_read::.acctest.elem_matrix0_dma    157968921                       # Total read bandwidth from this memory (bytes/s)
system.acctest.elem_matrix0_spm.bw_read::.acctest.harris_non_max0_dma      2980546                       # Total read bandwidth from this memory (bytes/s)
system.acctest.elem_matrix0_spm.bw_read::total   1025307896                       # Total read bandwidth from this memory (bytes/s)
system.acctest.elem_matrix0_spm.bw_write::.acctest.elem_matrix0.system.acctest.elem_matrix0    488809492                       # Write bandwidth from this memory (bytes/s)
system.acctest.elem_matrix0_spm.bw_write::.acctest.elem_matrix0_dma    476887491                       # Write bandwidth from this memory (bytes/s)
system.acctest.elem_matrix0_spm.bw_write::total    965696983                       # Write bandwidth from this memory (bytes/s)
system.acctest.elem_matrix0_spm.bw_total::.acctest.convolution0_dma     20863820                       # Total bandwidth to/from this memory (bytes/s)
system.acctest.elem_matrix0_spm.bw_total::.acctest.elem_matrix0.system.acctest.elem_matrix0   1332304102                       # Total bandwidth to/from this memory (bytes/s)
system.acctest.elem_matrix0_spm.bw_total::.acctest.elem_matrix0_dma    634856412                       # Total bandwidth to/from this memory (bytes/s)
system.acctest.elem_matrix0_spm.bw_total::.acctest.harris_non_max0_dma      2980546                       # Total bandwidth to/from this memory (bytes/s)
system.acctest.elem_matrix0_spm.bw_total::total   1991004879                       # Total bandwidth to/from this memory (bytes/s)
system.acctest.convolution0_dma.pwrStateResidencyTicks::UNDEFINED  28174669375                       # Cumulative time (in ticks) in various power states
system.acctest.convolution1_spm.pwrStateResidencyTicks::UNDEFINED  28174669375                       # Cumulative time (in ticks) in various power states
system.acctest.elem_matrix3_dma.pwrStateResidencyTicks::UNDEFINED  28174669375                       # Cumulative time (in ticks) in various power states
system.acctest.edge_tracking0_spm.pwrStateResidencyTicks::UNDEFINED  28174669375                       # Cumulative time (in ticks) in various power states
system.acctest.canny_non_max0_spm.pwrStateResidencyTicks::UNDEFINED  28174669375                       # Cumulative time (in ticks) in various power states
system.acctest.canny_non_max0_dma.pwrStateResidencyTicks::UNDEFINED  28174669375                       # Cumulative time (in ticks) in various power states
system.acctest.convolution1_dma.pwrStateResidencyTicks::UNDEFINED  28174669375                       # Cumulative time (in ticks) in various power states
system.acctest.elem_matrix1_spm.pwrStateResidencyTicks::UNDEFINED  28174669375                       # Cumulative time (in ticks) in various power states
system.acctest.elem_matrix2_dma.pwrStateResidencyTicks::UNDEFINED  28174669375                       # Cumulative time (in ticks) in various power states
system.acctest.harris_non_max0.pwrStateResidencyTicks::UNDEFINED  28174669375                       # Cumulative time (in ticks) in various power states
system.acctest.edge_tracking0_dma.pwrStateResidencyTicks::UNDEFINED  28174669375                       # Cumulative time (in ticks) in various power states
system.acctest.harris_non_max0_dma.pwrStateResidencyTicks::UNDEFINED  28174669375                       # Cumulative time (in ticks) in various power states
system.acctest.elem_matrix1.pwrStateResidencyTicks::UNDEFINED  28174669375                       # Cumulative time (in ticks) in various power states
system.acctest.elem_matrix0.pwrStateResidencyTicks::UNDEFINED  28174669375                       # Cumulative time (in ticks) in various power states
system.acctest.elem_matrix3.pwrStateResidencyTicks::UNDEFINED  28174669375                       # Cumulative time (in ticks) in various power states
system.acctest.elem_matrix2.pwrStateResidencyTicks::UNDEFINED  28174669375                       # Cumulative time (in ticks) in various power states
system.clk_domain.clock                          1000                       # Clock period in ticks
system.realview.hdlcd.pwrStateResidencyTicks::UNDEFINED  28174669375                       # Cumulative time (in ticks) in various power states
system.realview.realview_io.pwrStateResidencyTicks::UNDEFINED  28174669375                       # Cumulative time (in ticks) in various power states
system.realview.bootmem.pwrStateResidencyTicks::UNDEFINED  28174669375                       # Cumulative time (in ticks) in various power states
system.realview.bootmem.bytes_read::.cpu.inst        20352                       # Number of bytes read from this memory
system.realview.bootmem.bytes_read::.cpu.data         1600                       # Number of bytes read from this memory
system.realview.bootmem.bytes_read::total        21952                       # Number of bytes read from this memory
system.realview.bootmem.bytes_inst_read::.cpu.inst        20352                       # Number of instructions bytes read from this memory
system.realview.bootmem.bytes_inst_read::total        20352                       # Number of instructions bytes read from this memory
system.realview.bootmem.num_reads::.cpu.inst          318                       # Number of read requests responded to by this memory
system.realview.bootmem.num_reads::.cpu.data           25                       # Number of read requests responded to by this memory
[...]
system.cpu.icache.ReadReq_misses::total           318                       # number of ReadReq misses
system.cpu.icache.ReadReq_miss_latency::.cpu.inst     13820000                       # number of ReadReq miss cycles
system.cpu.icache.ReadReq_miss_latency::total     13820000                       # number of ReadReq miss cycles
system.cpu.icache.ReadReq_accesses::.cpu.inst       192371                       # number of ReadReq accesses(hits+misses)
system.cpu.icache.ReadReq_accesses::total       192371                       # number of ReadReq accesses(hits+misses)
system.cpu.icache.ReadReq_miss_rate::.cpu.inst     0.001653                       # miss rate for ReadReq accesses
system.cpu.icache.ReadReq_miss_rate::total     0.001653                       # miss rate for ReadReq accesses
system.cpu.icache.ReadReq_avg_miss_latency::.cpu.inst 43459.119497                       # average ReadReq miss latency
system.cpu.icache.ReadReq_avg_miss_latency::total 43459.119497                       # average ReadReq miss latency
system.cpu.icache.ReadReq_mshr_misses::.cpu.inst          318                       # number of ReadReq MSHR misses
system.cpu.icache.ReadReq_mshr_misses::total          318                       # number of ReadReq MSHR misses
system.cpu.icache.ReadReq_mshr_miss_latency::.cpu.inst     13317750                       # number of ReadReq MSHR miss cycles
system.cpu.icache.ReadReq_mshr_miss_latency::total     13317750                       # number of ReadReq MSHR miss cycles
system.cpu.icache.ReadReq_mshr_miss_rate::.cpu.inst     0.001653                       # mshr miss rate for ReadReq accesses
system.cpu.icache.ReadReq_mshr_miss_rate::total     0.001653                       # mshr miss rate for ReadReq accesses
system.cpu.icache.ReadReq_avg_mshr_miss_latency::.cpu.inst 41879.716981                       # average ReadReq mshr miss latency
system.cpu.icache.ReadReq_avg_mshr_miss_latency::total 41879.716981                       # average ReadReq mshr miss latency
system.cpu.icache.tags.pwrStateResidencyTicks::UNDEFINED  28174755000                       # Cumulative time (in ticks) in various power states
system.cpu.icache.tags.tagsinuse           459.659813                       # Cycle average of tags in use
system.cpu.icache.tags.total_refs             2379425                       # Total number of references to valid blocks.
system.cpu.icache.tags.sampled_refs               575                       # Sample count of references to valid blocks.
system.cpu.icache.tags.avg_refs           4138.130435                       # Average number of references to valid blocks.
system.cpu.icache.tags.warmup_cycle                 0                       # Cycle when the warmup percentage was hit.
system.cpu.icache.tags.occ_blocks::.cpu.inst   459.659813                       # Average occupied blocks per requestor
system.cpu.icache.tags.occ_percent::.cpu.inst     0.897773                       # Average percentage of cache occupancy
system.cpu.icache.tags.occ_percent::total     0.897773                       # Average percentage of cache occupancy
system.cpu.icache.tags.occ_task_id_blocks::1024          464                       # Occupied blocks per task id
system.cpu.icache.tags.age_task_id_blocks_1024::0            2                       # Occupied blocks per task id
system.cpu.icache.tags.age_task_id_blocks_1024::3            6                       # Occupied blocks per task id
system.cpu.icache.tags.age_task_id_blocks_1024::4          456                       # Occupied blocks per task id
system.cpu.icache.tags.occ_task_id_percent::1024     0.906250                       # Percentage of cache occupancy per task id
system.cpu.icache.tags.tag_accesses            385060                       # Number of tag accesses
system.cpu.icache.tags.data_accesses           385060                       # Number of data accesses
system.cpu.dtb.walker.pwrStateResidencyTicks::UNDEFINED  28174755000                       # Cumulative time (in ticks) in various power states
system.cpu.dtb.stage2_mmu.stage2_tlb.walker.pwrStateResidencyTicks::UNDEFINED  28174755000                       # Cumulative time (in ticks) in various power states
system.cpu.dcache.pwrStateResidencyTicks::UNDEFINED  28174755000                       # Cumulative time (in ticks) in various power states
system.cpu.dcache.demand_hits::.cpu.data       162000                       # number of demand (read+write) hits
system.cpu.dcache.demand_hits::total           162000                       # number of demand (read+write) hits
system.cpu.dcache.overall_hits::.cpu.data       162000                       # number of overall hits
system.cpu.dcache.overall_hits::total          162000                       # number of overall hits
system.cpu.dcache.demand_misses::.cpu.data          840                       # number of demand (read+write) misses
system.cpu.dcache.demand_misses::total            840                       # number of demand (read+write) misses
system.cpu.dcache.overall_misses::.cpu.data          840                       # number of overall misses
system.cpu.dcache.overall_misses::total           840                       # number of overall misses
system.cpu.dcache.demand_miss_latency::.cpu.data     61474375                       # number of demand (read+write) miss cycles
system.cpu.dcache.demand_miss_latency::total     61474375                       # number of demand (read+write) miss cycles
system.cpu.dcache.overall_miss_latency::.cpu.data     61474375                       # number of overall miss cycles
system.cpu.dcache.overall_miss_latency::total     61474375                       # number of overall miss cycles
system.cpu.dcache.demand_accesses::.cpu.data       162840                       # number of demand (read+write) accesses
system.cpu.dcache.demand_accesses::total       162840                       # number of demand (read+write) accesses
system.cpu.dcache.overall_accesses::.cpu.data       162840                       # number of overall (read+write) accesses
system.cpu.dcache.overall_accesses::total       162840                       # number of overall (read+write) accesses
system.cpu.dcache.demand_miss_rate::.cpu.data     0.005158                       # miss rate for demand accesses
system.cpu.dcache.demand_miss_rate::total     0.005158                       # miss rate for demand accesses
system.cpu.dcache.overall_miss_rate::.cpu.data     0.005158                       # miss rate for overall accesses
system.cpu.dcache.overall_miss_rate::total     0.005158                       # miss rate for overall accesses
system.cpu.dcache.demand_avg_miss_latency::.cpu.data 73183.779762                       # average overall miss latency
system.cpu.dcache.demand_avg_miss_latency::total 73183.779762                       # average overall miss latency
system.cpu.dcache.overall_avg_miss_latency::.cpu.data 73183.779762                       # average overall miss latency
system.cpu.dcache.overall_avg_miss_latency::total 73183.779762                       # average overall miss latency
system.cpu.dcache.blocked_cycles::no_mshrs            0                       # number of cycles access was blocked
system.cpu.dcache.blocked_cycles::no_targets            0                       # number of cycles access was blocked
system.cpu.dcache.blocked::no_mshrs                 0                       # number of cycles access was blocked
system.cpu.dcache.blocked::no_targets               0                       # number of cycles access was blocked
system.cpu.dcache.avg_blocked_cycles::no_mshrs          nan                       # average number of cycles each access was blocked
system.cpu.dcache.avg_blocked_cycles::no_targets          nan                       # average number of cycles each access was blocked
system.cpu.dcache.writebacks::.writebacks          369                       # number of writebacks
system.cpu.dcache.writebacks::total               369                       # number of writebacks
system.cpu.dcache.demand_mshr_hits::.cpu.data          191                       # number of demand (read+write) MSHR hits
system.cpu.dcache.demand_mshr_hits::total          191                       # number of demand (read+write) MSHR hits
system.cpu.dcache.overall_mshr_hits::.cpu.data          191                       # number of overall MSHR hits
system.cpu.dcache.overall_mshr_hits::total          191                       # number of overall MSHR hits
system.cpu.dcache.demand_mshr_misses::.cpu.data          649                       # number of demand (read+write) MSHR misses
system.cpu.dcache.demand_mshr_misses::total          649                       # number of demand (read+write) MSHR misses
system.cpu.dcache.overall_mshr_misses::.cpu.data          649                       # number of overall MSHR misses
system.cpu.dcache.overall_mshr_misses::total          649                       # number of overall MSHR misses
system.cpu.dcache.overall_mshr_uncacheable_misses::.cpu.data         4508                       # number of overall MSHR uncacheable misses
system.cpu.dcache.overall_mshr_uncacheable_misses::total         4508                       # number of overall MSHR uncacheable misses
system.cpu.dcache.demand_mshr_miss_latency::.cpu.data     46836750                       # number of demand (read+write) MSHR miss cycles
system.cpu.dcache.demand_mshr_miss_latency::total     46836750                       # number of demand (read+write) MSHR miss cycles
system.cpu.dcache.overall_mshr_miss_latency::.cpu.data     46836750                       # number of overall MSHR miss cycles
system.cpu.dcache.overall_mshr_miss_latency::total     46836750                       # number of overall MSHR miss cycles
system.cpu.dcache.overall_mshr_uncacheable_latency::.cpu.data      9609500                       # number of overall MSHR uncacheable cycles
system.cpu.dcache.overall_mshr_uncacheable_latency::total      9609500                       # number of overall MSHR uncacheable cycles
system.cpu.dcache.demand_mshr_miss_rate::.cpu.data     0.003986                       # mshr miss rate for demand accesses
system.cpu.dcache.demand_mshr_miss_rate::total     0.003986                       # mshr miss rate for demand accesses
system.cpu.dcache.overall_mshr_miss_rate::.cpu.data     0.003986                       # mshr miss rate for overall accesses
system.cpu.dcache.overall_mshr_miss_rate::total     0.003986                       # mshr miss rate for overall accesses
system.cpu.dcache.demand_avg_mshr_miss_latency::.cpu.data 72167.565485                       # average overall mshr miss latency
system.cpu.dcache.demand_avg_mshr_miss_latency::total 72167.565485                       # average overall mshr miss latency
system.cpu.dcache.overall_avg_mshr_miss_latency::.cpu.data 72167.565485                       # average overall mshr miss latency
system.cpu.dcache.overall_avg_mshr_miss_latency::total 72167.565485                       # average overall mshr miss latency
system.cpu.dcache.overall_avg_mshr_uncacheable_latency::.cpu.data  2131.654836                       # average overall mshr uncacheable latency
system.cpu.dcache.overall_avg_mshr_uncacheable_latency::total  2131.654836                       # average overall mshr uncacheable latency
system.cpu.dcache.replacements                    550                       # number of replacements
system.cpu.dcache.ReadReq_hits::.cpu.data       101057                       # number of ReadReq hits
system.cpu.dcache.ReadReq_hits::total          101057                       # number of ReadReq hits
system.cpu.dcache.ReadReq_misses::.cpu.data          437                       # number of ReadReq misses
system.cpu.dcache.ReadReq_misses::total           437                       # number of ReadReq misses
system.cpu.dcache.ReadReq_miss_latency::.cpu.data     32712750                       # number of ReadReq miss cycles
system.cpu.dcache.ReadReq_miss_latency::total     32712750                       # number of ReadReq miss cycles
system.cpu.dcache.ReadReq_accesses::.cpu.data       101494                       # number of ReadReq accesses(hits+misses)
system.cpu.dcache.ReadReq_accesses::total       101494                       # number of ReadReq accesses(hits+misses)
system.cpu.dcache.ReadReq_miss_rate::.cpu.data     0.004306                       # miss rate for ReadReq accesses
system.cpu.dcache.ReadReq_miss_rate::total     0.004306                       # miss rate for ReadReq accesses
system.cpu.dcache.ReadReq_avg_miss_latency::.cpu.data 74857.551487                       # average ReadReq miss latency
system.cpu.dcache.ReadReq_avg_miss_latency::total 74857.551487                       # average ReadReq miss latency
system.cpu.dcache.ReadReq_mshr_hits::.cpu.data            1                       # number of ReadReq MSHR hits
system.cpu.dcache.ReadReq_mshr_hits::total            1                       # number of ReadReq MSHR hits
system.cpu.dcache.ReadReq_mshr_misses::.cpu.data          436                       # number of ReadReq MSHR misses
system.cpu.dcache.ReadReq_mshr_misses::total          436                       # number of ReadReq MSHR misses
system.cpu.dcache.ReadReq_mshr_uncacheable::.cpu.data          442                       # number of ReadReq MSHR uncacheable
system.cpu.dcache.ReadReq_mshr_uncacheable::total          442                       # number of ReadReq MSHR uncacheable
system.cpu.dcache.ReadReq_mshr_miss_latency::.cpu.data     31986750                       # number of ReadReq MSHR miss cycles
system.cpu.dcache.ReadReq_mshr_miss_latency::total     31986750                       # number of ReadReq MSHR miss cycles
system.cpu.dcache.ReadReq_mshr_uncacheable_latency::.cpu.data      9609500                       # number of ReadReq MSHR uncacheable cycles
system.cpu.dcache.ReadReq_mshr_uncacheable_latency::total      9609500                       # number of ReadReq MSHR uncacheable cycles
system.cpu.dcache.ReadReq_mshr_miss_rate::.cpu.data     0.004296                       # mshr miss rate for ReadReq accesses
system.cpu.dcache.ReadReq_mshr_miss_rate::total     0.004296                       # mshr miss rate for ReadReq accesses
system.cpu.dcache.ReadReq_avg_mshr_miss_latency::.cpu.data 73364.105505                       # average ReadReq mshr miss latency
system.cpu.dcache.ReadReq_avg_mshr_miss_latency::total 73364.105505                       # average ReadReq mshr miss latency
system.cpu.dcache.ReadReq_avg_mshr_uncacheable_latency::.cpu.data 21740.950226                       # average ReadReq mshr uncacheable latency
system.cpu.dcache.ReadReq_avg_mshr_uncacheable_latency::total 21740.950226                       # average ReadReq mshr uncacheable latency
system.cpu.dcache.WriteReq_hits::.cpu.data        60943                       # number of WriteReq hits
system.cpu.dcache.WriteReq_hits::total          60943                       # number of WriteReq hits
system.cpu.dcache.WriteReq_misses::.cpu.data          403                       # number of WriteReq misses
system.cpu.dcache.WriteReq_misses::total          403                       # number of WriteReq misses
system.cpu.dcache.WriteReq_miss_latency::.cpu.data     28761625                       # number of WriteReq miss cycles
system.cpu.dcache.WriteReq_miss_latency::total     28761625                       # number of WriteReq miss cycles
system.cpu.dcache.WriteReq_accesses::.cpu.data        61346                       # number of WriteReq accesses(hits+misses)
system.cpu.dcache.WriteReq_accesses::total        61346                       # number of WriteReq accesses(hits+misses)
system.cpu.dcache.WriteReq_miss_rate::.cpu.data     0.006569                       # miss rate for WriteReq accesses
system.cpu.dcache.WriteReq_miss_rate::total     0.006569                       # miss rate for WriteReq accesses
system.cpu.dcache.WriteReq_avg_miss_latency::.cpu.data 71368.796526                       # average WriteReq miss latency
system.cpu.dcache.WriteReq_avg_miss_latency::total 71368.796526                       # average WriteReq miss latency
system.cpu.dcache.WriteReq_mshr_hits::.cpu.data          190                       # number of WriteReq MSHR hits
system.cpu.dcache.WriteReq_mshr_hits::total          190                       # number of WriteReq MSHR hits
system.cpu.dcache.WriteReq_mshr_misses::.cpu.data          213                       # number of WriteReq MSHR misses
system.cpu.dcache.WriteReq_mshr_misses::total          213                       # number of WriteReq MSHR misses
system.cpu.dcache.WriteReq_mshr_uncacheable::.cpu.data         4066                       # number of WriteReq MSHR uncacheable
system.cpu.dcache.WriteReq_mshr_uncacheable::total         4066                       # number of WriteReq MSHR uncacheable
system.cpu.dcache.WriteReq_mshr_miss_latency::.cpu.data     14850000                       # number of WriteReq MSHR miss cycles
system.cpu.dcache.WriteReq_mshr_miss_latency::total     14850000                       # number of WriteReq MSHR miss cycles
system.cpu.dcache.WriteReq_mshr_miss_rate::.cpu.data     0.003472                       # mshr miss rate for WriteReq accesses
system.cpu.dcache.WriteReq_mshr_miss_rate::total     0.003472                       # mshr miss rate for WriteReq accesses
system.cpu.dcache.WriteReq_avg_mshr_miss_latency::.cpu.data 69718.309859                       # average WriteReq mshr miss latency
system.cpu.dcache.WriteReq_avg_mshr_miss_latency::total 69718.309859                       # average WriteReq mshr miss latency
system.cpu.dcache.tags.pwrStateResidencyTicks::UNDEFINED  28174755000                       # Cumulative time (in ticks) in various power states
system.cpu.dcache.tags.tagsinuse           435.608145                       # Cycle average of tags in use
system.cpu.dcache.tags.total_refs              313032                       # Total number of references to valid blocks.
system.cpu.dcache.tags.sampled_refs               994                       # Sample count of references to valid blocks.
system.cpu.dcache.tags.avg_refs            314.921529                       # Average number of references to valid blocks.
system.cpu.dcache.tags.warmup_cycle                 0                       # Cycle when the warmup percentage was hit.
system.cpu.dcache.tags.occ_blocks::.cpu.data   435.608145                       # Average occupied blocks per requestor
system.cpu.dcache.tags.occ_percent::.cpu.data     0.850797                       # Average percentage of cache occupancy
system.cpu.dcache.tags.occ_percent::total     0.850797                       # Average percentage of cache occupancy
system.cpu.dcache.tags.occ_task_id_blocks::1024          444                       # Occupied blocks per task id
system.cpu.dcache.tags.age_task_id_blocks_1024::0            3                       # Occupied blocks per task id
system.cpu.dcache.tags.age_task_id_blocks_1024::1            2                       # Occupied blocks per task id
system.cpu.dcache.tags.age_task_id_blocks_1024::3           47                       # Occupied blocks per task id
system.cpu.dcache.tags.age_task_id_blocks_1024::4          392                       # Occupied blocks per task id
system.cpu.dcache.tags.occ_task_id_percent::1024     0.867188                       # Percentage of cache occupancy per task id
system.cpu.dcache.tags.tag_accesses            652009                       # Number of tag accesses
system.cpu.dcache.tags.data_accesses           652009                       # Number of data accesses
system.cpu.itb.walker.pwrStateResidencyTicks::UNDEFINED  28174755000                       # Cumulative time (in ticks) in various power states
system.cpu.itb.stage2_mmu.stage2_tlb.walker.pwrStateResidencyTicks::UNDEFINED  28174755000                       # Cumulative time (in ticks) in various power states

---------- End Simulation Statistics   ----------
