
---------- Begin Simulation Statistics ----------
final_tick                               199414326020                       # Number of ticks from beginning of simulation (restored from checkpoints and never reset)
host_inst_rate                                 132726                       # Simulator instruction rate (inst/s)
host_mem_usage                                4616588                       # Number of bytes of host memory used
host_op_rate                                   160445                       # Simulator op (including micro ops) rate (op/s)
host_seconds                                  2573.95                       # Real time elapsed on the host
host_tick_rate                               77474055                       # Simulator tick rate (ticks/s)
sim_freq                                 1000000000000                       # Frequency of simulated ticks
sim_insts                                   341630040                       # Number of instructions simulated
sim_ops                                     412978125                       # Number of ops (including micro ops) simulated
sim_seconds                                  0.199414                       # Number of seconds simulated
sim_ticks                                199414326020                       # Number of ticks simulated
system.cpu_cluster.cpus.branchPred.BTBCorrect            0                       # Number of correct BTB predictions (this stat may not work properly.
system.cpu_cluster.cpus.branchPred.BTBHitPct    87.937068                       # BTB Hit Percentage
system.cpu_cluster.cpus.branchPred.BTBHits     13016662                       # Number of BTB hits
system.cpu_cluster.cpus.branchPred.BTBLookups     14802247                       # Number of BTB lookups
system.cpu_cluster.cpus.branchPred.RASInCorrect           39                       # Number of incorrect RAS predictions.
system.cpu_cluster.cpus.branchPred.condIncorrect      3466293                       # Number of conditional branches incorrect
system.cpu_cluster.cpus.branchPred.condPredicted     45178410                       # Number of conditional branches predicted
system.cpu_cluster.cpus.branchPred.indirectHits        54737                       # Number of indirect target hits.
system.cpu_cluster.cpus.branchPred.indirectLookups        70040                       # Number of indirect predictor lookups.
system.cpu_cluster.cpus.branchPred.indirectMisses        15303                       # Number of indirect misses.
system.cpu_cluster.cpus.branchPred.lookups     50631861                       # Number of BP lookups
system.cpu_cluster.cpus.branchPred.usedRAS      2194452                       # Number of times the RAS was used to get a target.
system.cpu_cluster.cpus.branchPredindirectMispredicted         6503                       # Number of mispredicted indirect branches.
system.cpu_cluster.cpus.committedInsts      341630040                       # Number of instructions committed
system.cpu_cluster.cpus.committedOps        412978125                       # Number of ops (including micro ops) committed
system.cpu_cluster.cpus.cpi                  1.282888                       # CPI: cycles per instruction
system.cpu_cluster.cpus.dcache.prefetcher.num_hwpf_issued         1124                       # number of hwpf issued
system.cpu_cluster.cpus.dcache.prefetcher.pfBufferHit           10                       # number of redundant prefetches already in prefetch queue
system.cpu_cluster.cpus.dcache.prefetcher.pfIdentified         1147                       # number of prefetch candidates identified
system.cpu_cluster.cpus.dcache.prefetcher.pfInCache            0                       # number of redundant prefetches already in cache/mshr dropped
system.cpu_cluster.cpus.dcache.prefetcher.pfRemovedFull            4                       # number of prefetches dropped due to prefetch queue size
system.cpu_cluster.cpus.dcache.prefetcher.pfSpanPage          169                       # number of prefetches that crossed the page
system.cpu_cluster.cpus.discardedOps         11201507                       # Number of ops (including micro ops) which were discarded before commit
system.cpu_cluster.cpus.dtb.accesses                0                       # DTB accesses
system.cpu_cluster.cpus.dtb.align_faults            0                       # Number of TLB faults due to alignment restrictions
system.cpu_cluster.cpus.dtb.domain_faults            0                       # Number of TLB faults due to domain restrictions
system.cpu_cluster.cpus.dtb.flush_entries            0                       # Number of entries that have been flushed from TLB
system.cpu_cluster.cpus.dtb.flush_tlb               0                       # Number of times complete TLB was flushed
system.cpu_cluster.cpus.dtb.flush_tlb_asid            0                       # Number of times TLB was flushed by ASID
system.cpu_cluster.cpus.dtb.flush_tlb_mva            0                       # Number of times TLB was flushed by MVA
system.cpu_cluster.cpus.dtb.flush_tlb_mva_asid            0                       # Number of times TLB was flushed by MVA & ASID
system.cpu_cluster.cpus.dtb.hits                    0                       # DTB hits
system.cpu_cluster.cpus.dtb.inst_accesses            0                       # ITB inst accesses
system.cpu_cluster.cpus.dtb.inst_hits               0                       # ITB inst hits
system.cpu_cluster.cpus.dtb.inst_misses             0                       # ITB inst misses
system.cpu_cluster.cpus.dtb.misses                  0                       # DTB misses
system.cpu_cluster.cpus.dtb.perms_faults            0                       # Number of TLB faults due to permissions restrictions
system.cpu_cluster.cpus.dtb.prefetch_faults            0                       # Number of TLB faults due to prefetch
system.cpu_cluster.cpus.dtb.read_accesses            0                       # DTB read accesses
system.cpu_cluster.cpus.dtb.read_hits               0                       # DTB read hits
system.cpu_cluster.cpus.dtb.read_misses             0                       # DTB read misses
system.cpu_cluster.cpus.dtb.stage2_mmu.stage2_tlb.accesses            0                       # DTB accesses
system.cpu_cluster.cpus.dtb.stage2_mmu.stage2_tlb.align_faults            0                       # Number of TLB faults due to alignment restrictions
system.cpu_cluster.cpus.dtb.stage2_mmu.stage2_tlb.domain_faults            0                       # Number of TLB faults due to domain restrictions
system.cpu_cluster.cpus.dtb.stage2_mmu.stage2_tlb.flush_entries            0                       # Number of entries that have been flushed from TLB
system.cpu_cluster.cpus.dtb.stage2_mmu.stage2_tlb.flush_tlb            0                       # Number of times complete TLB was flushed
system.cpu_cluster.cpus.dtb.stage2_mmu.stage2_tlb.flush_tlb_asid            0                       # Number of times TLB was flushed by ASID
system.cpu_cluster.cpus.dtb.stage2_mmu.stage2_tlb.flush_tlb_mva            0                       # Number of times TLB was flushed by MVA
system.cpu_cluster.cpus.dtb.stage2_mmu.stage2_tlb.flush_tlb_mva_asid            0                       # Number of times TLB was flushed by MVA & ASID
system.cpu_cluster.cpus.dtb.stage2_mmu.stage2_tlb.hits            0                       # DTB hits
system.cpu_cluster.cpus.dtb.stage2_mmu.stage2_tlb.inst_accesses            0                       # ITB inst accesses
system.cpu_cluster.cpus.dtb.stage2_mmu.stage2_tlb.inst_hits            0                       # ITB inst hits
system.cpu_cluster.cpus.dtb.stage2_mmu.stage2_tlb.inst_misses            0                       # ITB inst misses
system.cpu_cluster.cpus.dtb.stage2_mmu.stage2_tlb.misses            0                       # DTB misses
system.cpu_cluster.cpus.dtb.stage2_mmu.stage2_tlb.perms_faults            0                       # Number of TLB faults due to permissions restrictions
system.cpu_cluster.cpus.dtb.stage2_mmu.stage2_tlb.prefetch_faults            0                       # Number of TLB faults due to prefetch
system.cpu_cluster.cpus.dtb.stage2_mmu.stage2_tlb.read_accesses            0                       # DTB read accesses
system.cpu_cluster.cpus.dtb.stage2_mmu.stage2_tlb.read_hits            0                       # DTB read hits
system.cpu_cluster.cpus.dtb.stage2_mmu.stage2_tlb.read_misses            0                       # DTB read misses
system.cpu_cluster.cpus.dtb.stage2_mmu.stage2_tlb.walker.walkRequestOrigin_Requested::Data            0                       # Table walker requests started/completed, data/inst
system.cpu_cluster.cpus.dtb.stage2_mmu.stage2_tlb.walker.walkRequestOrigin_Requested::Inst            0                       # Table walker requests started/completed, data/inst
system.cpu_cluster.cpus.dtb.stage2_mmu.stage2_tlb.walker.walkRequestOrigin_Requested::total            0                       # Table walker requests started/completed, data/inst
system.cpu_cluster.cpus.dtb.stage2_mmu.stage2_tlb.walker.walkRequestOrigin_Completed::Data            0                       # Table walker requests started/completed, data/inst
system.cpu_cluster.cpus.dtb.stage2_mmu.stage2_tlb.walker.walkRequestOrigin_Completed::Inst            0                       # Table walker requests started/completed, data/inst
system.cpu_cluster.cpus.dtb.stage2_mmu.stage2_tlb.walker.walkRequestOrigin_Completed::total            0                       # Table walker requests started/completed, data/inst
system.cpu_cluster.cpus.dtb.stage2_mmu.stage2_tlb.walker.walkRequestOrigin::total            0                       # Table walker requests started/completed, data/inst
system.cpu_cluster.cpus.dtb.stage2_mmu.stage2_tlb.walker.walks            0                       # Table walker walks requested
system.cpu_cluster.cpus.dtb.stage2_mmu.stage2_tlb.write_accesses            0                       # DTB write accesses
system.cpu_cluster.cpus.dtb.stage2_mmu.stage2_tlb.write_hits            0                       # DTB write hits
system.cpu_cluster.cpus.dtb.stage2_mmu.stage2_tlb.write_misses            0                       # DTB write misses
system.cpu_cluster.cpus.dtb.walker.walkRequestOrigin_Requested::Data            0                       # Table walker requests started/completed, data/inst
system.cpu_cluster.cpus.dtb.walker.walkRequestOrigin_Requested::Inst            0                       # Table walker requests started/completed, data/inst
system.cpu_cluster.cpus.dtb.walker.walkRequestOrigin_Requested::total            0                       # Table walker requests started/completed, data/inst
system.cpu_cluster.cpus.dtb.walker.walkRequestOrigin_Completed::Data            0                       # Table walker requests started/completed, data/inst
system.cpu_cluster.cpus.dtb.walker.walkRequestOrigin_Completed::Inst            0                       # Table walker requests started/completed, data/inst
system.cpu_cluster.cpus.dtb.walker.walkRequestOrigin_Completed::total            0                       # Table walker requests started/completed, data/inst
system.cpu_cluster.cpus.dtb.walker.walkRequestOrigin::total            0                       # Table walker requests started/completed, data/inst
system.cpu_cluster.cpus.dtb.walker.walks            0                       # Table walker walks requested
system.cpu_cluster.cpus.dtb.write_accesses            0                       # DTB write accesses
system.cpu_cluster.cpus.dtb.write_hits              0                       # DTB write hits
system.cpu_cluster.cpus.dtb.write_misses            0                       # DTB write misses
system.cpu_cluster.cpus.fetch2.amo_instructions          229                       # Number of memory atomic instructions successfully decoded
system.cpu_cluster.cpus.fetch2.fp_instructions            0                       # Number of floating point instructions successfully decoded
system.cpu_cluster.cpus.fetch2.int_instructions    196418856                       # Number of integer instructions successfully decoded
system.cpu_cluster.cpus.fetch2.load_instructions     81258835                       # Number of memory load instructions successfully decoded
system.cpu_cluster.cpus.fetch2.store_instructions     23096751                       # Number of memory store instructions successfully decoded
system.cpu_cluster.cpus.fetch2.vec_instructions       174670                       # Number of SIMD instructions successfully decoded
system.cpu_cluster.cpus.idleCycles            1826644                       # Total number of cycles that the object has spent stopped
system.cpu_cluster.cpus.ipc                  0.779491                       # IPC: instructions per cycle
system.cpu_cluster.cpus.itb.accesses                0                       # DTB accesses
system.cpu_cluster.cpus.itb.align_faults            0                       # Number of TLB faults due to alignment restrictions
system.cpu_cluster.cpus.itb.domain_faults            0                       # Number of TLB faults due to domain restrictions
system.cpu_cluster.cpus.itb.flush_entries            0                       # Number of entries that have been flushed from TLB
system.cpu_cluster.cpus.itb.flush_tlb               0                       # Number of times complete TLB was flushed
system.cpu_cluster.cpus.itb.flush_tlb_asid            0                       # Number of times TLB was flushed by ASID
system.cpu_cluster.cpus.itb.flush_tlb_mva            0                       # Number of times TLB was flushed by MVA
system.cpu_cluster.cpus.itb.flush_tlb_mva_asid            0                       # Number of times TLB was flushed by MVA & ASID
system.cpu_cluster.cpus.itb.hits                    0                       # DTB hits
system.cpu_cluster.cpus.itb.inst_accesses            0                       # ITB inst accesses
system.cpu_cluster.cpus.itb.inst_hits               0                       # ITB inst hits
system.cpu_cluster.cpus.itb.inst_misses             0                       # ITB inst misses
system.cpu_cluster.cpus.itb.misses                  0                       # DTB misses
system.cpu_cluster.cpus.itb.perms_faults            0                       # Number of TLB faults due to permissions restrictions
system.cpu_cluster.cpus.itb.prefetch_faults            0                       # Number of TLB faults due to prefetch
system.cpu_cluster.cpus.itb.read_accesses            0                       # DTB read accesses
system.cpu_cluster.cpus.itb.read_hits               0                       # DTB read hits
system.cpu_cluster.cpus.itb.read_misses             0                       # DTB read misses
system.cpu_cluster.cpus.itb.stage2_mmu.stage2_tlb.accesses            0                       # DTB accesses
system.cpu_cluster.cpus.itb.stage2_mmu.stage2_tlb.align_faults            0                       # Number of TLB faults due to alignment restrictions
system.cpu_cluster.cpus.itb.stage2_mmu.stage2_tlb.domain_faults            0                       # Number of TLB faults due to domain restrictions
system.cpu_cluster.cpus.itb.stage2_mmu.stage2_tlb.flush_entries            0                       # Number of entries that have been flushed from TLB
system.cpu_cluster.cpus.itb.stage2_mmu.stage2_tlb.flush_tlb            0                       # Number of times complete TLB was flushed
system.cpu_cluster.cpus.itb.stage2_mmu.stage2_tlb.flush_tlb_asid            0                       # Number of times TLB was flushed by ASID
system.cpu_cluster.cpus.itb.stage2_mmu.stage2_tlb.flush_tlb_mva            0                       # Number of times TLB was flushed by MVA
system.cpu_cluster.cpus.itb.stage2_mmu.stage2_tlb.flush_tlb_mva_asid            0                       # Number of times TLB was flushed by MVA & ASID
system.cpu_cluster.cpus.itb.stage2_mmu.stage2_tlb.hits            0                       # DTB hits
system.cpu_cluster.cpus.itb.stage2_mmu.stage2_tlb.inst_accesses            0                       # ITB inst accesses
system.cpu_cluster.cpus.itb.stage2_mmu.stage2_tlb.inst_hits            0                       # ITB inst hits
system.cpu_cluster.cpus.itb.stage2_mmu.stage2_tlb.inst_misses            0                       # ITB inst misses
system.cpu_cluster.cpus.itb.stage2_mmu.stage2_tlb.misses            0                       # DTB misses
system.cpu_cluster.cpus.itb.stage2_mmu.stage2_tlb.perms_faults            0                       # Number of TLB faults due to permissions restrictions
system.cpu_cluster.cpus.itb.stage2_mmu.stage2_tlb.prefetch_faults            0                       # Number of TLB faults due to prefetch
system.cpu_cluster.cpus.itb.stage2_mmu.stage2_tlb.read_accesses            0                       # DTB read accesses
system.cpu_cluster.cpus.itb.stage2_mmu.stage2_tlb.read_hits            0                       # DTB read hits
system.cpu_cluster.cpus.itb.stage2_mmu.stage2_tlb.read_misses            0                       # DTB read misses
system.cpu_cluster.cpus.itb.stage2_mmu.stage2_tlb.walker.walkRequestOrigin_Requested::Data            0                       # Table walker requests started/completed, data/inst
system.cpu_cluster.cpus.itb.stage2_mmu.stage2_tlb.walker.walkRequestOrigin_Requested::Inst            0                       # Table walker requests started/completed, data/inst
system.cpu_cluster.cpus.itb.stage2_mmu.stage2_tlb.walker.walkRequestOrigin_Requested::total            0                       # Table walker requests started/completed, data/inst
system.cpu_cluster.cpus.itb.stage2_mmu.stage2_tlb.walker.walkRequestOrigin_Completed::Data            0                       # Table walker requests started/completed, data/inst
system.cpu_cluster.cpus.itb.stage2_mmu.stage2_tlb.walker.walkRequestOrigin_Completed::Inst            0                       # Table walker requests started/completed, data/inst
system.cpu_cluster.cpus.itb.stage2_mmu.stage2_tlb.walker.walkRequestOrigin_Completed::total            0                       # Table walker requests started/completed, data/inst
system.cpu_cluster.cpus.itb.stage2_mmu.stage2_tlb.walker.walkRequestOrigin::total            0                       # Table walker requests started/completed, data/inst
system.cpu_cluster.cpus.itb.stage2_mmu.stage2_tlb.walker.walks            0                       # Table walker walks requested
system.cpu_cluster.cpus.itb.stage2_mmu.stage2_tlb.write_accesses            0                       # DTB write accesses
system.cpu_cluster.cpus.itb.stage2_mmu.stage2_tlb.write_hits            0                       # DTB write hits
system.cpu_cluster.cpus.itb.stage2_mmu.stage2_tlb.write_misses            0                       # DTB write misses
system.cpu_cluster.cpus.itb.walker.walkRequestOrigin_Requested::Data            0                       # Table walker requests started/completed, data/inst
system.cpu_cluster.cpus.itb.walker.walkRequestOrigin_Requested::Inst            0                       # Table walker requests started/completed, data/inst
system.cpu_cluster.cpus.itb.walker.walkRequestOrigin_Requested::total            0                       # Table walker requests started/completed, data/inst
system.cpu_cluster.cpus.itb.walker.walkRequestOrigin_Completed::Data            0                       # Table walker requests started/completed, data/inst
system.cpu_cluster.cpus.itb.walker.walkRequestOrigin_Completed::Inst            0                       # Table walker requests started/completed, data/inst
system.cpu_cluster.cpus.itb.walker.walkRequestOrigin_Completed::total            0                       # Table walker requests started/completed, data/inst
system.cpu_cluster.cpus.itb.walker.walkRequestOrigin::total            0                       # Table walker requests started/completed, data/inst
system.cpu_cluster.cpus.itb.walker.walks            0                       # Table walker walks requested
system.cpu_cluster.cpus.itb.write_accesses            0                       # DTB write accesses
system.cpu_cluster.cpus.itb.write_hits              0                       # DTB write hits
system.cpu_cluster.cpus.itb.write_misses            0                       # DTB write misses
system.cpu_cluster.cpus.numCycles           438273244                       # number of cpu cycles simulated
system.cpu_cluster.cpus.numFetchSuspends            0                       # Number of times Execute suspended instruction fetching
system.cpu_cluster.cpus.numWorkItemsCompleted            0                       # number of work items this cpu completed
system.cpu_cluster.cpus.numWorkItemsStarted            0                       # number of work items this cpu started
system.cpu_cluster.cpus.op_class_0::No_OpClass        24427      0.01%      0.01% # Class of committed instruction
system.cpu_cluster.cpus.op_class_0::IntAlu    254899270     61.72%     61.73% # Class of committed instruction
system.cpu_cluster.cpus.op_class_0::IntMult        10065      0.00%     61.73% # Class of committed instruction
system.cpu_cluster.cpus.op_class_0::IntDiv           35      0.00%     61.73% # Class of committed instruction
system.cpu_cluster.cpus.op_class_0::FloatAdd         1800      0.00%     61.73% # Class of committed instruction
system.cpu_cluster.cpus.op_class_0::FloatCmp           12      0.00%     61.73% # Class of committed instruction
system.cpu_cluster.cpus.op_class_0::FloatCvt         1801      0.00%     61.73% # Class of committed instruction
system.cpu_cluster.cpus.op_class_0::FloatMult            0      0.00%     61.73% # Class of committed instruction
system.cpu_cluster.cpus.op_class_0::FloatMultAcc            0      0.00%     61.73% # Class of committed instruction
system.cpu_cluster.cpus.op_class_0::FloatDiv         1803      0.00%     61.73% # Class of committed instruction
system.cpu_cluster.cpus.op_class_0::FloatMisc         8053      0.00%     61.73% # Class of committed instruction
system.cpu_cluster.cpus.op_class_0::FloatSqrt            0      0.00%     61.73% # Class of committed instruction
system.cpu_cluster.cpus.op_class_0::SimdAdd         7256      0.00%     61.74% # Class of committed instruction
system.cpu_cluster.cpus.op_class_0::SimdAddAcc            0      0.00%     61.74% # Class of committed instruction
system.cpu_cluster.cpus.op_class_0::SimdAlu         7275      0.00%     61.74% # Class of committed instruction
system.cpu_cluster.cpus.op_class_0::SimdCmp         8086      0.00%     61.74% # Class of committed instruction
system.cpu_cluster.cpus.op_class_0::SimdCvt            2      0.00%     61.74% # Class of committed instruction
system.cpu_cluster.cpus.op_class_0::SimdMisc       119946      0.03%     61.77% # Class of committed instruction
system.cpu_cluster.cpus.op_class_0::SimdMult            0      0.00%     61.77% # Class of committed instruction
system.cpu_cluster.cpus.op_class_0::SimdMultAcc            0      0.00%     61.77% # Class of committed instruction
system.cpu_cluster.cpus.op_class_0::SimdShift            2      0.00%     61.77% # Class of committed instruction
system.cpu_cluster.cpus.op_class_0::SimdShiftAcc            0      0.00%     61.77% # Class of committed instruction
system.cpu_cluster.cpus.op_class_0::SimdDiv            0      0.00%     61.77% # Class of committed instruction
system.cpu_cluster.cpus.op_class_0::SimdSqrt            0      0.00%     61.77% # Class of committed instruction
system.cpu_cluster.cpus.op_class_0::SimdFloatAdd            0      0.00%     61.77% # Class of committed instruction
system.cpu_cluster.cpus.op_class_0::SimdFloatAlu            0      0.00%     61.77% # Class of committed instruction
system.cpu_cluster.cpus.op_class_0::SimdFloatCmp            0      0.00%     61.77% # Class of committed instruction
system.cpu_cluster.cpus.op_class_0::SimdFloatCvt            0      0.00%     61.77% # Class of committed instruction
system.cpu_cluster.cpus.op_class_0::SimdFloatDiv            0      0.00%     61.77% # Class of committed instruction
system.cpu_cluster.cpus.op_class_0::SimdFloatMisc            0      0.00%     61.77% # Class of committed instruction
system.cpu_cluster.cpus.op_class_0::SimdFloatMult            0      0.00%     61.77% # Class of committed instruction
system.cpu_cluster.cpus.op_class_0::SimdFloatMultAcc            0      0.00%     61.77% # Class of committed instruction
system.cpu_cluster.cpus.op_class_0::SimdFloatSqrt            0      0.00%     61.77% # Class of committed instruction
system.cpu_cluster.cpus.op_class_0::SimdReduceAdd            0      0.00%     61.77% # Class of committed instruction
system.cpu_cluster.cpus.op_class_0::SimdReduceAlu            0      0.00%     61.77% # Class of committed instruction
system.cpu_cluster.cpus.op_class_0::SimdReduceCmp            0      0.00%     61.77% # Class of committed instruction
system.cpu_cluster.cpus.op_class_0::SimdFloatReduceAdd            0      0.00%     61.77% # Class of committed instruction
system.cpu_cluster.cpus.op_class_0::SimdFloatReduceCmp            0      0.00%     61.77% # Class of committed instruction
system.cpu_cluster.cpus.op_class_0::SimdAes            0      0.00%     61.77% # Class of committed instruction
system.cpu_cluster.cpus.op_class_0::SimdAesMix            0      0.00%     61.77% # Class of committed instruction
system.cpu_cluster.cpus.op_class_0::SimdSha1Hash            0      0.00%     61.77% # Class of committed instruction
system.cpu_cluster.cpus.op_class_0::SimdSha1Hash2            0      0.00%     61.77% # Class of committed instruction
system.cpu_cluster.cpus.op_class_0::SimdSha256Hash            0      0.00%     61.77% # Class of committed instruction
system.cpu_cluster.cpus.op_class_0::SimdSha256Hash2            0      0.00%     61.77% # Class of committed instruction
system.cpu_cluster.cpus.op_class_0::SimdShaSigma2            0      0.00%     61.77% # Class of committed instruction
system.cpu_cluster.cpus.op_class_0::SimdShaSigma3            0      0.00%     61.77% # Class of committed instruction
system.cpu_cluster.cpus.op_class_0::SimdPredAlu            0      0.00%     61.77% # Class of committed instruction
system.cpu_cluster.cpus.op_class_0::MemRead    101222219     24.51%     86.28% # Class of committed instruction
system.cpu_cluster.cpus.op_class_0::MemWrite     56666073     13.72%    100.00% # Class of committed instruction
system.cpu_cluster.cpus.op_class_0::FloatMemRead            0      0.00%    100.00% # Class of committed instruction
system.cpu_cluster.cpus.op_class_0::FloatMemWrite            0      0.00%    100.00% # Class of committed instruction
system.cpu_cluster.cpus.op_class_0::IprAccess            0      0.00%    100.00% # Class of committed instruction
system.cpu_cluster.cpus.op_class_0::InstPrefetch            0      0.00%    100.00% # Class of committed instruction
system.cpu_cluster.cpus.op_class_0::total    412978125                       # Class of committed instruction
system.cpu_cluster.cpus.tickCycles          436446600                       # Number of cycles that the object actually ticked
system.cpu_cluster.cpus.workload.numSyscalls         3655                       # Number of system calls
system.cpu_cluster.toL2Bus.snoop_filter.hit_multi_requests           19                       # Number of requests hitting in the snoop filter with multiple (>1) holders of the requested data.
system.cpu_cluster.toL2Bus.snoop_filter.hit_multi_snoops            0                       # Number of snoops hitting in the snoop filter with multiple (>1) holders of the requested data.
system.cpu_cluster.toL2Bus.snoop_filter.hit_single_requests        76097                       # Number of requests hitting in the snoop filter with a single holder of the requested data.
system.cpu_cluster.toL2Bus.snoop_filter.hit_single_snoops            0                       # Number of snoops hitting in the snoop filter with a single holder of the requested data.
system.cpu_cluster.toL2Bus.snoop_filter.tot_requests       153217                       # Total number of requests made to the snoop filter.
system.cpu_cluster.toL2Bus.snoop_filter.tot_snoops            0                       # Total number of snoops made to the snoop filter.
system.membus.snoop_filter.hit_multi_requests            0                       # Number of requests hitting in the snoop filter with multiple (>1) holders of the requested data.
system.membus.snoop_filter.hit_multi_snoops            0                       # Number of snoops hitting in the snoop filter with multiple (>1) holders of the requested data.
system.membus.snoop_filter.hit_single_requests            0                       # Number of requests hitting in the snoop filter with a single holder of the requested data.
system.membus.snoop_filter.hit_single_snoops            0                       # Number of snoops hitting in the snoop filter with a single holder of the requested data.
system.membus.snoop_filter.tot_requests          5263                       # Total number of requests made to the snoop filter.
system.membus.snoop_filter.tot_snoops               0                       # Total number of snoops made to the snoop filter.
system.membus.pwrStateResidencyTicks::UNDEFINED 199414326020                       # Cumulative time (in ticks) in various power states
system.membus.trans_dist::ReadResp               2775                       # Transaction distribution
system.membus.trans_dist::ReadExReq              2477                       # Transaction distribution
system.membus.trans_dist::ReadExResp             2477                       # Transaction distribution
system.membus.trans_dist::ReadSharedReq          2775                       # Transaction distribution
system.membus.trans_dist::InvalidateReq            11                       # Transaction distribution
system.membus.pkt_count_system.cpu_cluster.l2.mem_side::system.mem_ctrls.port        10515                       # Packet count per connected master and slave (bytes)
system.membus.pkt_count_system.cpu_cluster.l2.mem_side::total        10515                       # Packet count per connected master and slave (bytes)
system.membus.pkt_count::total                  10515                       # Packet count per connected master and slave (bytes)
system.membus.pkt_size_system.cpu_cluster.l2.mem_side::system.mem_ctrls.port       336128                       # Cumulative packet size per connected master and slave (bytes)
system.membus.pkt_size_system.cpu_cluster.l2.mem_side::total       336128                       # Cumulative packet size per connected master and slave (bytes)
system.membus.pkt_size::total                  336128                       # Cumulative packet size per connected master and slave (bytes)
system.membus.snoops                                0                       # Total snoops (count)
system.membus.snoopTraffic                          0                       # Total snoop traffic (bytes)
system.membus.snoop_fanout::samples              5263                       # Request fanout histogram
system.membus.snoop_fanout::mean                    0                       # Request fanout histogram
system.membus.snoop_fanout::stdev                   0                       # Request fanout histogram
system.membus.snoop_fanout::underflows              0      0.00%      0.00% # Request fanout histogram
system.membus.snoop_fanout::0                    5263    100.00%    100.00% # Request fanout histogram
system.membus.snoop_fanout::1                       0      0.00%    100.00% # Request fanout histogram
system.membus.snoop_fanout::overflows               0      0.00%    100.00% # Request fanout histogram
system.membus.snoop_fanout::min_value               0                       # Request fanout histogram
system.membus.snoop_fanout::max_value               0                       # Request fanout histogram
system.membus.snoop_fanout::total                5263                       # Request fanout histogram
system.membus.reqLayer0.occupancy             7929977                       # Layer occupancy (ticks)
system.membus.reqLayer0.utilization               0.0                       # Layer utilization (%)
system.membus.badaddr_responder.pwrStateResidencyTicks::UNDEFINED 199414326020                       # Cumulative time (in ticks) in various power states
system.membus.respLayer1.occupancy           26581402                       # Layer occupancy (ticks)
system.membus.respLayer1.utilization              0.0                       # Layer utilization (%)
system.voltage_domain.voltage                       1                       # Voltage in Volts
system.clk_domain.clock                          1000                       # Clock period in ticks
system.cpu_cluster.toL2Bus.pwrStateResidencyTicks::UNDEFINED 199414326020                       # Cumulative time (in ticks) in various power states
system.cpu_cluster.toL2Bus.trans_dist::ReadResp        73986                       # Transaction distribution
system.cpu_cluster.toL2Bus.trans_dist::WritebackDirty         7651                       # Transaction distribution
system.cpu_cluster.toL2Bus.trans_dist::CleanEvict        68445                       # Transaction distribution
system.cpu_cluster.toL2Bus.trans_dist::ReadExReq         3123                       # Transaction distribution
system.cpu_cluster.toL2Bus.trans_dist::ReadExResp         3123                       # Transaction distribution
system.cpu_cluster.toL2Bus.trans_dist::ReadSharedReq        73987                       # Transaction distribution
system.cpu_cluster.toL2Bus.trans_dist::InvalidateReq           11                       # Transaction distribution
system.cpu_cluster.toL2Bus.trans_dist::InvalidateResp           11                       # Transaction distribution
system.cpu_cluster.toL2Bus.pkt_count_system.cpu_cluster.cpus.icache.mem_side::system.cpu_cluster.l2.cpu_side       204848                       # Packet count per connected master and slave (bytes)
system.cpu_cluster.toL2Bus.pkt_count_system.cpu_cluster.cpus.dcache.mem_side::system.cpu_cluster.l2.cpu_side        25489                       # Packet count per connected master and slave (bytes)
system.cpu_cluster.toL2Bus.pkt_count::total       230337                       # Packet count per connected master and slave (bytes)
system.cpu_cluster.toL2Bus.pkt_size_system.cpu_cluster.cpus.icache.mem_side::system.cpu_cluster.l2.cpu_side      4380992                       # Cumulative packet size per connected master and slave (bytes)
system.cpu_cluster.toL2Bus.pkt_size_system.cpu_cluster.cpus.dcache.mem_side::system.cpu_cluster.l2.cpu_side      1043648                       # Cumulative packet size per connected master and slave (bytes)
system.cpu_cluster.toL2Bus.pkt_size::total      5424640                       # Cumulative packet size per connected master and slave (bytes)
system.cpu_cluster.toL2Bus.snoops                   0                       # Total snoops (count)
system.cpu_cluster.toL2Bus.snoopTraffic             0                       # Total snoop traffic (bytes)
system.cpu_cluster.toL2Bus.snoop_fanout::samples        77121                       # Request fanout histogram
system.cpu_cluster.toL2Bus.snoop_fanout::mean     0.000259                       # Request fanout histogram
system.cpu_cluster.toL2Bus.snoop_fanout::stdev     0.016102                       # Request fanout histogram
system.cpu_cluster.toL2Bus.snoop_fanout::underflows            0      0.00%      0.00% # Request fanout histogram
system.cpu_cluster.toL2Bus.snoop_fanout::0        77101     99.97%     99.97% # Request fanout histogram
system.cpu_cluster.toL2Bus.snoop_fanout::1           20      0.03%    100.00% # Request fanout histogram
system.cpu_cluster.toL2Bus.snoop_fanout::2            0      0.00%    100.00% # Request fanout histogram
system.cpu_cluster.toL2Bus.snoop_fanout::3            0      0.00%    100.00% # Request fanout histogram
system.cpu_cluster.toL2Bus.snoop_fanout::4            0      0.00%    100.00% # Request fanout histogram
system.cpu_cluster.toL2Bus.snoop_fanout::overflows            0      0.00%    100.00% # Request fanout histogram
system.cpu_cluster.toL2Bus.snoop_fanout::min_value            0                       # Request fanout histogram
system.cpu_cluster.toL2Bus.snoop_fanout::max_value            1                       # Request fanout histogram
system.cpu_cluster.toL2Bus.snoop_fanout::total        77121                       # Request fanout histogram
system.cpu_cluster.toL2Bus.reqLayer0.occupancy     73456399                       # Layer occupancy (ticks)
system.cpu_cluster.toL2Bus.reqLayer0.utilization          0.0                       # Layer utilization (%)
system.cpu_cluster.toL2Bus.respLayer1.occupancy      7882873                       # Layer occupancy (ticks)
system.cpu_cluster.toL2Bus.respLayer1.utilization          0.0                       # Layer utilization (%)
system.cpu_cluster.toL2Bus.respLayer0.occupancy     62293138                       # Layer occupancy (ticks)
system.cpu_cluster.toL2Bus.respLayer0.utilization          0.0                       # Layer utilization (%)
system.cpu_cluster.voltage_domain.voltage            1                       # Voltage in Volts
system.cpu_cluster.l2.pwrStateResidencyTicks::UNDEFINED 199414326020                       # Cumulative time (in ticks) in various power states
system.cpu_cluster.l2.demand_hits::.cpu_cluster.cpus.inst        66623                       # number of demand (read+write) hits
system.cpu_cluster.l2.demand_hits::.cpu_cluster.cpus.data         4933                       # number of demand (read+write) hits
system.cpu_cluster.l2.demand_hits::.cpu_cluster.cpus.dcache.prefetcher          301                       # number of demand (read+write) hits
system.cpu_cluster.l2.demand_hits::total        71857                       # number of demand (read+write) hits
system.cpu_cluster.l2.overall_hits::.cpu_cluster.cpus.inst        66623                       # number of overall hits
system.cpu_cluster.l2.overall_hits::.cpu_cluster.cpus.data         4933                       # number of overall hits
system.cpu_cluster.l2.overall_hits::.cpu_cluster.cpus.dcache.prefetcher          301                       # number of overall hits
system.cpu_cluster.l2.overall_hits::total        71857                       # number of overall hits
system.cpu_cluster.l2.demand_misses::.cpu_cluster.cpus.inst         1831                       # number of demand (read+write) misses
system.cpu_cluster.l2.demand_misses::.cpu_cluster.cpus.data         2772                       # number of demand (read+write) misses
system.cpu_cluster.l2.demand_misses::.cpu_cluster.cpus.dcache.prefetcher          650                       # number of demand (read+write) misses
system.cpu_cluster.l2.demand_misses::total         5253                       # number of demand (read+write) misses
system.cpu_cluster.l2.overall_misses::.cpu_cluster.cpus.inst         1831                       # number of overall misses
system.cpu_cluster.l2.overall_misses::.cpu_cluster.cpus.data         2772                       # number of overall misses
system.cpu_cluster.l2.overall_misses::.cpu_cluster.cpus.dcache.prefetcher          650                       # number of overall misses
system.cpu_cluster.l2.overall_misses::total         5253                       # number of overall misses
system.cpu_cluster.l2.demand_miss_latency::.cpu_cluster.cpus.inst    137881380                       # number of demand (read+write) miss cycles
system.cpu_cluster.l2.demand_miss_latency::.cpu_cluster.cpus.data    210303730                       # number of demand (read+write) miss cycles
system.cpu_cluster.l2.demand_miss_latency::.cpu_cluster.cpus.dcache.prefetcher     49314687                       # number of demand (read+write) miss cycles
system.cpu_cluster.l2.demand_miss_latency::total    397499797                       # number of demand (read+write) miss cycles
system.cpu_cluster.l2.overall_miss_latency::.cpu_cluster.cpus.inst    137881380                       # number of overall miss cycles
system.cpu_cluster.l2.overall_miss_latency::.cpu_cluster.cpus.data    210303730                       # number of overall miss cycles
system.cpu_cluster.l2.overall_miss_latency::.cpu_cluster.cpus.dcache.prefetcher     49314687                       # number of overall miss cycles
system.cpu_cluster.l2.overall_miss_latency::total    397499797                       # number of overall miss cycles
system.cpu_cluster.l2.demand_accesses::.cpu_cluster.cpus.inst        68454                       # number of demand (read+write) accesses
system.cpu_cluster.l2.demand_accesses::.cpu_cluster.cpus.data         7705                       # number of demand (read+write) accesses
system.cpu_cluster.l2.demand_accesses::.cpu_cluster.cpus.dcache.prefetcher          951                       # number of demand (read+write) accesses
system.cpu_cluster.l2.demand_accesses::total        77110                       # number of demand (read+write) accesses
system.cpu_cluster.l2.overall_accesses::.cpu_cluster.cpus.inst        68454                       # number of overall (read+write) accesses
system.cpu_cluster.l2.overall_accesses::.cpu_cluster.cpus.data         7705                       # number of overall (read+write) accesses
system.cpu_cluster.l2.overall_accesses::.cpu_cluster.cpus.dcache.prefetcher          951                       # number of overall (read+write) accesses
system.cpu_cluster.l2.overall_accesses::total        77110                       # number of overall (read+write) accesses
system.cpu_cluster.l2.demand_miss_rate::.cpu_cluster.cpus.inst     0.026748                       # miss rate for demand accesses
system.cpu_cluster.l2.demand_miss_rate::.cpu_cluster.cpus.data     0.359766                       # miss rate for demand accesses
system.cpu_cluster.l2.demand_miss_rate::.cpu_cluster.cpus.dcache.prefetcher     0.683491                       # miss rate for demand accesses
system.cpu_cluster.l2.demand_miss_rate::total     0.068123                       # miss rate for demand accesses
system.cpu_cluster.l2.overall_miss_rate::.cpu_cluster.cpus.inst     0.026748                       # miss rate for overall accesses
system.cpu_cluster.l2.overall_miss_rate::.cpu_cluster.cpus.data     0.359766                       # miss rate for overall accesses
system.cpu_cluster.l2.overall_miss_rate::.cpu_cluster.cpus.dcache.prefetcher     0.683491                       # miss rate for overall accesses
system.cpu_cluster.l2.overall_miss_rate::total     0.068123                       # miss rate for overall accesses
system.cpu_cluster.l2.demand_avg_miss_latency::.cpu_cluster.cpus.inst 75303.866739                       # average overall miss latency
system.cpu_cluster.l2.demand_avg_miss_latency::.cpu_cluster.cpus.data 75867.146465                       # average overall miss latency
system.cpu_cluster.l2.demand_avg_miss_latency::.cpu_cluster.cpus.dcache.prefetcher 75868.749231                       # average overall miss latency
system.cpu_cluster.l2.demand_avg_miss_latency::total 75671.006472                       # average overall miss latency
system.cpu_cluster.l2.overall_avg_miss_latency::.cpu_cluster.cpus.inst 75303.866739                       # average overall miss latency
system.cpu_cluster.l2.overall_avg_miss_latency::.cpu_cluster.cpus.data 75867.146465                       # average overall miss latency
system.cpu_cluster.l2.overall_avg_miss_latency::.cpu_cluster.cpus.dcache.prefetcher 75868.749231                       # average overall miss latency
system.cpu_cluster.l2.overall_avg_miss_latency::total 75671.006472                       # average overall miss latency
system.cpu_cluster.l2.blocked_cycles::no_mshrs           74                       # number of cycles access was blocked
system.cpu_cluster.l2.blocked_cycles::no_targets            0                       # number of cycles access was blocked
system.cpu_cluster.l2.blocked::no_mshrs             2                       # number of cycles access was blocked
system.cpu_cluster.l2.blocked::no_targets            0                       # number of cycles access was blocked
system.cpu_cluster.l2.avg_blocked_cycles::no_mshrs           37                       # average number of cycles each access was blocked
system.cpu_cluster.l2.avg_blocked_cycles::no_targets          nan                       # average number of cycles each access was blocked
system.cpu_cluster.l2.demand_mshr_misses::.cpu_cluster.cpus.inst         1831                       # number of demand (read+write) MSHR misses
system.cpu_cluster.l2.demand_mshr_misses::.cpu_cluster.cpus.data         2772                       # number of demand (read+write) MSHR misses
system.cpu_cluster.l2.demand_mshr_misses::.cpu_cluster.cpus.dcache.prefetcher          650                       # number of demand (read+write) MSHR misses
system.cpu_cluster.l2.demand_mshr_misses::total         5253                       # number of demand (read+write) MSHR misses
system.cpu_cluster.l2.overall_mshr_misses::.cpu_cluster.cpus.inst         1831                       # number of overall MSHR misses
system.cpu_cluster.l2.overall_mshr_misses::.cpu_cluster.cpus.data         2772                       # number of overall MSHR misses
system.cpu_cluster.l2.overall_mshr_misses::.cpu_cluster.cpus.dcache.prefetcher          650                       # number of overall MSHR misses
system.cpu_cluster.l2.overall_mshr_misses::total         5253                       # number of overall MSHR misses
system.cpu_cluster.l2.demand_mshr_miss_latency::.cpu_cluster.cpus.inst    133329300                       # number of demand (read+write) MSHR miss cycles
system.cpu_cluster.l2.demand_mshr_miss_latency::.cpu_cluster.cpus.data    203383760                       # number of demand (read+write) MSHR miss cycles
system.cpu_cluster.l2.demand_mshr_miss_latency::.cpu_cluster.cpus.dcache.prefetcher     47693107                       # number of demand (read+write) MSHR miss cycles
system.cpu_cluster.l2.demand_mshr_miss_latency::total    384406167                       # number of demand (read+write) MSHR miss cycles
system.cpu_cluster.l2.overall_mshr_miss_latency::.cpu_cluster.cpus.inst    133329300                       # number of overall MSHR miss cycles
system.cpu_cluster.l2.overall_mshr_miss_latency::.cpu_cluster.cpus.data    203383760                       # number of overall MSHR miss cycles
system.cpu_cluster.l2.overall_mshr_miss_latency::.cpu_cluster.cpus.dcache.prefetcher     47693107                       # number of overall MSHR miss cycles
system.cpu_cluster.l2.overall_mshr_miss_latency::total    384406167                       # number of overall MSHR miss cycles
system.cpu_cluster.l2.demand_mshr_miss_rate::.cpu_cluster.cpus.inst     0.026748                       # mshr miss rate for demand accesses
system.cpu_cluster.l2.demand_mshr_miss_rate::.cpu_cluster.cpus.data     0.359766                       # mshr miss rate for demand accesses
system.cpu_cluster.l2.demand_mshr_miss_rate::.cpu_cluster.cpus.dcache.prefetcher     0.683491                       # mshr miss rate for demand accesses
system.cpu_cluster.l2.demand_mshr_miss_rate::total     0.068123                       # mshr miss rate for demand accesses
system.cpu_cluster.l2.overall_mshr_miss_rate::.cpu_cluster.cpus.inst     0.026748                       # mshr miss rate for overall accesses
system.cpu_cluster.l2.overall_mshr_miss_rate::.cpu_cluster.cpus.data     0.359766                       # mshr miss rate for overall accesses
system.cpu_cluster.l2.overall_mshr_miss_rate::.cpu_cluster.cpus.dcache.prefetcher     0.683491                       # mshr miss rate for overall accesses
system.cpu_cluster.l2.overall_mshr_miss_rate::total     0.068123                       # mshr miss rate for overall accesses
system.cpu_cluster.l2.demand_avg_mshr_miss_latency::.cpu_cluster.cpus.inst 72817.749863                       # average overall mshr miss latency
system.cpu_cluster.l2.demand_avg_mshr_miss_latency::.cpu_cluster.cpus.data 73370.764791                       # average overall mshr miss latency
system.cpu_cluster.l2.demand_avg_mshr_miss_latency::.cpu_cluster.cpus.dcache.prefetcher 73374.010769                       # average overall mshr miss latency
system.cpu_cluster.l2.demand_avg_mshr_miss_latency::total 73178.406054                       # average overall mshr miss latency
system.cpu_cluster.l2.overall_avg_mshr_miss_latency::.cpu_cluster.cpus.inst 72817.749863                       # average overall mshr miss latency
system.cpu_cluster.l2.overall_avg_mshr_miss_latency::.cpu_cluster.cpus.data 73370.764791                       # average overall mshr miss latency
system.cpu_cluster.l2.overall_avg_mshr_miss_latency::.cpu_cluster.cpus.dcache.prefetcher 73374.010769                       # average overall mshr miss latency
system.cpu_cluster.l2.overall_avg_mshr_miss_latency::total 73178.406054                       # average overall mshr miss latency
system.cpu_cluster.l2.replacements                  0                       # number of replacements
system.cpu_cluster.l2.WritebackDirty_hits::.writebacks         7651                       # number of WritebackDirty hits
system.cpu_cluster.l2.WritebackDirty_hits::total         7651                       # number of WritebackDirty hits
system.cpu_cluster.l2.WritebackDirty_accesses::.writebacks         7651                       # number of WritebackDirty accesses(hits+misses)
system.cpu_cluster.l2.WritebackDirty_accesses::total         7651                       # number of WritebackDirty accesses(hits+misses)
system.cpu_cluster.l2.ReadExReq_hits::.cpu_cluster.cpus.data          646                       # number of ReadExReq hits
system.cpu_cluster.l2.ReadExReq_hits::total          646                       # number of ReadExReq hits
system.cpu_cluster.l2.ReadExReq_misses::.cpu_cluster.cpus.data         2477                       # number of ReadExReq misses
system.cpu_cluster.l2.ReadExReq_misses::total         2477                       # number of ReadExReq misses
system.cpu_cluster.l2.ReadExReq_miss_latency::.cpu_cluster.cpus.data    184315495                       # number of ReadExReq miss cycles
system.cpu_cluster.l2.ReadExReq_miss_latency::total    184315495                       # number of ReadExReq miss cycles
system.cpu_cluster.l2.ReadExReq_accesses::.cpu_cluster.cpus.data         3123                       # number of ReadExReq accesses(hits+misses)
system.cpu_cluster.l2.ReadExReq_accesses::total         3123                       # number of ReadExReq accesses(hits+misses)
system.cpu_cluster.l2.ReadExReq_miss_rate::.cpu_cluster.cpus.data     0.793148                       # miss rate for ReadExReq accesses
system.cpu_cluster.l2.ReadExReq_miss_rate::total     0.793148                       # miss rate for ReadExReq accesses
system.cpu_cluster.l2.ReadExReq_avg_miss_latency::.cpu_cluster.cpus.data 74410.777150                       # average ReadExReq miss latency
system.cpu_cluster.l2.ReadExReq_avg_miss_latency::total 74410.777150                       # average ReadExReq miss latency
system.cpu_cluster.l2.ReadExReq_mshr_misses::.cpu_cluster.cpus.data         2477                       # number of ReadExReq MSHR misses
system.cpu_cluster.l2.ReadExReq_mshr_misses::total         2477                       # number of ReadExReq MSHR misses
system.cpu_cluster.l2.ReadExReq_mshr_miss_latency::.cpu_cluster.cpus.data    178132300                       # number of ReadExReq MSHR miss cycles
system.cpu_cluster.l2.ReadExReq_mshr_miss_latency::total    178132300                       # number of ReadExReq MSHR miss cycles
system.cpu_cluster.l2.ReadExReq_mshr_miss_rate::.cpu_cluster.cpus.data     0.793148                       # mshr miss rate for ReadExReq accesses
system.cpu_cluster.l2.ReadExReq_mshr_miss_rate::total     0.793148                       # mshr miss rate for ReadExReq accesses
system.cpu_cluster.l2.ReadExReq_avg_mshr_miss_latency::.cpu_cluster.cpus.data 71914.533710                       # average ReadExReq mshr miss latency
system.cpu_cluster.l2.ReadExReq_avg_mshr_miss_latency::total 71914.533710                       # average ReadExReq mshr miss latency
system.cpu_cluster.l2.ReadSharedReq_hits::.cpu_cluster.cpus.inst        66623                       # number of ReadSharedReq hits
system.cpu_cluster.l2.ReadSharedReq_hits::.cpu_cluster.cpus.data         4287                       # number of ReadSharedReq hits
system.cpu_cluster.l2.ReadSharedReq_hits::.cpu_cluster.cpus.dcache.prefetcher          301                       # number of ReadSharedReq hits
system.cpu_cluster.l2.ReadSharedReq_hits::total        71211                       # number of ReadSharedReq hits
system.cpu_cluster.l2.ReadSharedReq_misses::.cpu_cluster.cpus.inst         1831                       # number of ReadSharedReq misses
system.cpu_cluster.l2.ReadSharedReq_misses::.cpu_cluster.cpus.data          295                       # number of ReadSharedReq misses
system.cpu_cluster.l2.ReadSharedReq_misses::.cpu_cluster.cpus.dcache.prefetcher          650                       # number of ReadSharedReq misses
system.cpu_cluster.l2.ReadSharedReq_misses::total         2776                       # number of ReadSharedReq misses
system.cpu_cluster.l2.ReadSharedReq_miss_latency::.cpu_cluster.cpus.inst    137881380                       # number of ReadSharedReq miss cycles
system.cpu_cluster.l2.ReadSharedReq_miss_latency::.cpu_cluster.cpus.data     25988235                       # number of ReadSharedReq miss cycles
system.cpu_cluster.l2.ReadSharedReq_miss_latency::.cpu_cluster.cpus.dcache.prefetcher     49314687                       # number of ReadSharedReq miss cycles
system.cpu_cluster.l2.ReadSharedReq_miss_latency::total    213184302                       # number of ReadSharedReq miss cycles
system.cpu_cluster.l2.ReadSharedReq_accesses::.cpu_cluster.cpus.inst        68454                       # number of ReadSharedReq accesses(hits+misses)
system.cpu_cluster.l2.ReadSharedReq_accesses::.cpu_cluster.cpus.data         4582                       # number of ReadSharedReq accesses(hits+misses)
system.cpu_cluster.l2.ReadSharedReq_accesses::.cpu_cluster.cpus.dcache.prefetcher          951                       # number of ReadSharedReq accesses(hits+misses)
system.cpu_cluster.l2.ReadSharedReq_accesses::total        73987                       # number of ReadSharedReq accesses(hits+misses)
system.cpu_cluster.l2.ReadSharedReq_miss_rate::.cpu_cluster.cpus.inst     0.026748                       # miss rate for ReadSharedReq accesses
system.cpu_cluster.l2.ReadSharedReq_miss_rate::.cpu_cluster.cpus.data     0.064382                       # miss rate for ReadSharedReq accesses
system.cpu_cluster.l2.ReadSharedReq_miss_rate::.cpu_cluster.cpus.dcache.prefetcher     0.683491                       # miss rate for ReadSharedReq accesses
system.cpu_cluster.l2.ReadSharedReq_miss_rate::total     0.037520                       # miss rate for ReadSharedReq accesses
system.cpu_cluster.l2.ReadSharedReq_avg_miss_latency::.cpu_cluster.cpus.inst 75303.866739                       # average ReadSharedReq miss latency
system.cpu_cluster.l2.ReadSharedReq_avg_miss_latency::.cpu_cluster.cpus.data 88095.711864                       # average ReadSharedReq miss latency
system.cpu_cluster.l2.ReadSharedReq_avg_miss_latency::.cpu_cluster.cpus.dcache.prefetcher 75868.749231                       # average ReadSharedReq miss latency
system.cpu_cluster.l2.ReadSharedReq_avg_miss_latency::total 76795.497839                       # average ReadSharedReq miss latency
system.cpu_cluster.l2.ReadSharedReq_mshr_misses::.cpu_cluster.cpus.inst         1831                       # number of ReadSharedReq MSHR misses
system.cpu_cluster.l2.ReadSharedReq_mshr_misses::.cpu_cluster.cpus.data          295                       # number of ReadSharedReq MSHR misses
system.cpu_cluster.l2.ReadSharedReq_mshr_misses::.cpu_cluster.cpus.dcache.prefetcher          650                       # number of ReadSharedReq MSHR misses
system.cpu_cluster.l2.ReadSharedReq_mshr_misses::total         2776                       # number of ReadSharedReq MSHR misses
system.cpu_cluster.l2.ReadSharedReq_mshr_miss_latency::.cpu_cluster.cpus.inst    133329300                       # number of ReadSharedReq MSHR miss cycles
system.cpu_cluster.l2.ReadSharedReq_mshr_miss_latency::.cpu_cluster.cpus.data     25251460                       # number of ReadSharedReq MSHR miss cycles
system.cpu_cluster.l2.ReadSharedReq_mshr_miss_latency::.cpu_cluster.cpus.dcache.prefetcher     47693107                       # number of ReadSharedReq MSHR miss cycles
system.cpu_cluster.l2.ReadSharedReq_mshr_miss_latency::total    206273867                       # number of ReadSharedReq MSHR miss cycles
system.cpu_cluster.l2.ReadSharedReq_mshr_miss_rate::.cpu_cluster.cpus.inst     0.026748                       # mshr miss rate for ReadSharedReq accesses
system.cpu_cluster.l2.ReadSharedReq_mshr_miss_rate::.cpu_cluster.cpus.data     0.064382                       # mshr miss rate for ReadSharedReq accesses
system.cpu_cluster.l2.ReadSharedReq_mshr_miss_rate::.cpu_cluster.cpus.dcache.prefetcher     0.683491                       # mshr miss rate for ReadSharedReq accesses
system.cpu_cluster.l2.ReadSharedReq_mshr_miss_rate::total     0.037520                       # mshr miss rate for ReadSharedReq accesses
system.cpu_cluster.l2.ReadSharedReq_avg_mshr_miss_latency::.cpu_cluster.cpus.inst 72817.749863                       # average ReadSharedReq mshr miss latency
system.cpu_cluster.l2.ReadSharedReq_avg_mshr_miss_latency::.cpu_cluster.cpus.data 85598.169492                       # average ReadSharedReq mshr miss latency
system.cpu_cluster.l2.ReadSharedReq_avg_mshr_miss_latency::.cpu_cluster.cpus.dcache.prefetcher 73374.010769                       # average ReadSharedReq mshr miss latency
system.cpu_cluster.l2.ReadSharedReq_avg_mshr_miss_latency::total 74306.148055                       # average ReadSharedReq mshr miss latency
system.cpu_cluster.l2.InvalidateReq_misses::.cpu_cluster.cpus.data           11                       # number of InvalidateReq misses
system.cpu_cluster.l2.InvalidateReq_misses::total           11                       # number of InvalidateReq misses
system.cpu_cluster.l2.InvalidateReq_accesses::.cpu_cluster.cpus.data           11                       # number of InvalidateReq accesses(hits+misses)
system.cpu_cluster.l2.InvalidateReq_accesses::total           11                       # number of InvalidateReq accesses(hits+misses)
system.cpu_cluster.l2.InvalidateReq_miss_rate::.cpu_cluster.cpus.data            1                       # miss rate for InvalidateReq accesses
system.cpu_cluster.l2.InvalidateReq_miss_rate::total            1                       # miss rate for InvalidateReq accesses
system.cpu_cluster.l2.InvalidateReq_mshr_misses::.cpu_cluster.cpus.data           11                       # number of InvalidateReq MSHR misses
system.cpu_cluster.l2.InvalidateReq_mshr_misses::total           11                       # number of InvalidateReq MSHR misses
system.cpu_cluster.l2.InvalidateReq_mshr_miss_latency::.cpu_cluster.cpus.data       167495                       # number of InvalidateReq MSHR miss cycles
system.cpu_cluster.l2.InvalidateReq_mshr_miss_latency::total       167495                       # number of InvalidateReq MSHR miss cycles
system.cpu_cluster.l2.InvalidateReq_mshr_miss_rate::.cpu_cluster.cpus.data            1                       # mshr miss rate for InvalidateReq accesses
system.cpu_cluster.l2.InvalidateReq_mshr_miss_rate::total            1                       # mshr miss rate for InvalidateReq accesses
system.cpu_cluster.l2.InvalidateReq_avg_mshr_miss_latency::.cpu_cluster.cpus.data 15226.818182                       # average InvalidateReq mshr miss latency
system.cpu_cluster.l2.InvalidateReq_avg_mshr_miss_latency::total 15226.818182                       # average InvalidateReq mshr miss latency
system.cpu_cluster.l2.tags.pwrStateResidencyTicks::UNDEFINED 199414326020                       # Cumulative time (in ticks) in various power states
system.cpu_cluster.l2.tags.tagsinuse      3978.415568                       # Cycle average of tags in use
system.cpu_cluster.l2.tags.total_refs          153186                       # Total number of references to valid blocks.
system.cpu_cluster.l2.tags.sampled_refs          5263                       # Sample count of references to valid blocks.
system.cpu_cluster.l2.tags.avg_refs         29.106213                       # Average number of references to valid blocks.
system.cpu_cluster.l2.tags.warmup_cycle         92000                       # Cycle when the warmup percentage was hit.
system.cpu_cluster.l2.tags.occ_blocks::.writebacks    10.980331                       # Average occupied blocks per requestor
system.cpu_cluster.l2.tags.occ_blocks::.cpu_cluster.cpus.inst  1338.905000                       # Average occupied blocks per requestor
system.cpu_cluster.l2.tags.occ_blocks::.cpu_cluster.cpus.data  2063.859183                       # Average occupied blocks per requestor
system.cpu_cluster.l2.tags.occ_blocks::.cpu_cluster.cpus.dcache.prefetcher   564.671054                       # Average occupied blocks per requestor
system.cpu_cluster.l2.tags.occ_percent::.writebacks     0.000670                       # Average percentage of cache occupancy
system.cpu_cluster.l2.tags.occ_percent::.cpu_cluster.cpus.inst     0.081720                       # Average percentage of cache occupancy
system.cpu_cluster.l2.tags.occ_percent::.cpu_cluster.cpus.data     0.125968                       # Average percentage of cache occupancy
system.cpu_cluster.l2.tags.occ_percent::.cpu_cluster.cpus.dcache.prefetcher     0.034465                       # Average percentage of cache occupancy
system.cpu_cluster.l2.tags.occ_percent::total     0.242823                       # Average percentage of cache occupancy
system.cpu_cluster.l2.tags.occ_task_id_blocks::1022          650                       # Occupied blocks per task id
system.cpu_cluster.l2.tags.occ_task_id_blocks::1024         4613                       # Occupied blocks per task id
system.cpu_cluster.l2.tags.age_task_id_blocks_1022::0            3                       # Occupied blocks per task id
system.cpu_cluster.l2.tags.age_task_id_blocks_1022::2           31                       # Occupied blocks per task id
system.cpu_cluster.l2.tags.age_task_id_blocks_1022::3           47                       # Occupied blocks per task id
system.cpu_cluster.l2.tags.age_task_id_blocks_1022::4          569                       # Occupied blocks per task id
system.cpu_cluster.l2.tags.age_task_id_blocks_1024::0          111                       # Occupied blocks per task id
system.cpu_cluster.l2.tags.age_task_id_blocks_1024::1          572                       # Occupied blocks per task id
system.cpu_cluster.l2.tags.age_task_id_blocks_1024::2          172                       # Occupied blocks per task id
system.cpu_cluster.l2.tags.age_task_id_blocks_1024::3          333                       # Occupied blocks per task id
system.cpu_cluster.l2.tags.age_task_id_blocks_1024::4         3425                       # Occupied blocks per task id
system.cpu_cluster.l2.tags.occ_task_id_percent::1022     0.039673                       # Percentage of cache occupancy per task id
system.cpu_cluster.l2.tags.occ_task_id_percent::1024     0.281555                       # Percentage of cache occupancy per task id
system.cpu_cluster.l2.tags.tag_accesses       2456431                       # Number of tag accesses
system.cpu_cluster.l2.tags.data_accesses      2456431                       # Number of data accesses
system.cpu_cluster.clk_domain.clock               455                       # Clock period in ticks
system.cpu_cluster.cpus.pwrStateResidencyTicks::ON 199414326020                       # Cumulative time (in ticks) in various power states
system.cpu_cluster.cpus.icache.pwrStateResidencyTicks::UNDEFINED 199414326020                       # Cumulative time (in ticks) in various power states
system.cpu_cluster.cpus.icache.demand_hits::.cpu_cluster.cpus.inst     71470168                       # number of demand (read+write) hits
system.cpu_cluster.cpus.icache.demand_hits::total     71470168                       # number of demand (read+write) hits
system.cpu_cluster.cpus.icache.overall_hits::.cpu_cluster.cpus.inst     71470168                       # number of overall hits
system.cpu_cluster.cpus.icache.overall_hits::total     71470168                       # number of overall hits
system.cpu_cluster.cpus.icache.demand_misses::.cpu_cluster.cpus.inst        68454                       # number of demand (read+write) misses
system.cpu_cluster.cpus.icache.demand_misses::total        68454                       # number of demand (read+write) misses
system.cpu_cluster.cpus.icache.overall_misses::.cpu_cluster.cpus.inst        68454                       # number of overall misses
system.cpu_cluster.cpus.icache.overall_misses::total        68454                       # number of overall misses
system.cpu_cluster.cpus.icache.demand_miss_latency::.cpu_cluster.cpus.inst    655721885                       # number of demand (read+write) miss cycles
system.cpu_cluster.cpus.icache.demand_miss_latency::total    655721885                       # number of demand (read+write) miss cycles
system.cpu_cluster.cpus.icache.overall_miss_latency::.cpu_cluster.cpus.inst    655721885                       # number of overall miss cycles
system.cpu_cluster.cpus.icache.overall_miss_latency::total    655721885                       # number of overall miss cycles
system.cpu_cluster.cpus.icache.demand_accesses::.cpu_cluster.cpus.inst     71538622                       # number of demand (read+write) accesses
system.cpu_cluster.cpus.icache.demand_accesses::total     71538622                       # number of demand (read+write) accesses
system.cpu_cluster.cpus.icache.overall_accesses::.cpu_cluster.cpus.inst     71538622                       # number of overall (read+write) accesses
system.cpu_cluster.cpus.icache.overall_accesses::total     71538622                       # number of overall (read+write) accesses
system.cpu_cluster.cpus.icache.demand_miss_rate::.cpu_cluster.cpus.inst     0.000957                       # miss rate for demand accesses
system.cpu_cluster.cpus.icache.demand_miss_rate::total     0.000957                       # miss rate for demand accesses
system.cpu_cluster.cpus.icache.overall_miss_rate::.cpu_cluster.cpus.inst     0.000957                       # miss rate for overall accesses
system.cpu_cluster.cpus.icache.overall_miss_rate::total     0.000957                       # miss rate for overall accesses
system.cpu_cluster.cpus.icache.demand_avg_miss_latency::.cpu_cluster.cpus.inst  9579.014886                       # average overall miss latency
system.cpu_cluster.cpus.icache.demand_avg_miss_latency::total  9579.014886                       # average overall miss latency
system.cpu_cluster.cpus.icache.overall_avg_miss_latency::.cpu_cluster.cpus.inst  9579.014886                       # average overall miss latency
system.cpu_cluster.cpus.icache.overall_avg_miss_latency::total  9579.014886                       # average overall miss latency
system.cpu_cluster.cpus.icache.blocked_cycles::no_mshrs            0                       # number of cycles access was blocked
system.cpu_cluster.cpus.icache.blocked_cycles::no_targets            0                       # number of cycles access was blocked
system.cpu_cluster.cpus.icache.blocked::no_mshrs            0                       # number of cycles access was blocked
system.cpu_cluster.cpus.icache.blocked::no_targets            0                       # number of cycles access was blocked
system.cpu_cluster.cpus.icache.avg_blocked_cycles::no_mshrs          nan                       # average number of cycles each access was blocked
system.cpu_cluster.cpus.icache.avg_blocked_cycles::no_targets          nan                       # average number of cycles each access was blocked
system.cpu_cluster.cpus.icache.demand_mshr_misses::.cpu_cluster.cpus.inst        68454                       # number of demand (read+write) MSHR misses
system.cpu_cluster.cpus.icache.demand_mshr_misses::total        68454                       # number of demand (read+write) MSHR misses
system.cpu_cluster.cpus.icache.overall_mshr_misses::.cpu_cluster.cpus.inst        68454                       # number of overall MSHR misses
system.cpu_cluster.cpus.icache.overall_mshr_misses::total        68454                       # number of overall MSHR misses
system.cpu_cluster.cpus.icache.demand_mshr_miss_latency::.cpu_cluster.cpus.inst    624575770                       # number of demand (read+write) MSHR miss cycles
system.cpu_cluster.cpus.icache.demand_mshr_miss_latency::total    624575770                       # number of demand (read+write) MSHR miss cycles
system.cpu_cluster.cpus.icache.overall_mshr_miss_latency::.cpu_cluster.cpus.inst    624575770                       # number of overall MSHR miss cycles
system.cpu_cluster.cpus.icache.overall_mshr_miss_latency::total    624575770                       # number of overall MSHR miss cycles
system.cpu_cluster.cpus.icache.demand_mshr_miss_rate::.cpu_cluster.cpus.inst     0.000957                       # mshr miss rate for demand accesses
system.cpu_cluster.cpus.icache.demand_mshr_miss_rate::total     0.000957                       # mshr miss rate for demand accesses
system.cpu_cluster.cpus.icache.overall_mshr_miss_rate::.cpu_cluster.cpus.inst     0.000957                       # mshr miss rate for overall accesses
system.cpu_cluster.cpus.icache.overall_mshr_miss_rate::total     0.000957                       # mshr miss rate for overall accesses
system.cpu_cluster.cpus.icache.demand_avg_mshr_miss_latency::.cpu_cluster.cpus.inst  9124.021533                       # average overall mshr miss latency
system.cpu_cluster.cpus.icache.demand_avg_mshr_miss_latency::total  9124.021533                       # average overall mshr miss latency
system.cpu_cluster.cpus.icache.overall_avg_mshr_miss_latency::.cpu_cluster.cpus.inst  9124.021533                       # average overall mshr miss latency
system.cpu_cluster.cpus.icache.overall_avg_mshr_miss_latency::total  9124.021533                       # average overall mshr miss latency
system.cpu_cluster.cpus.icache.replacements        67941                       # number of replacements
system.cpu_cluster.cpus.icache.ReadReq_hits::.cpu_cluster.cpus.inst     71470168                       # number of ReadReq hits
system.cpu_cluster.cpus.icache.ReadReq_hits::total     71470168                       # number of ReadReq hits
system.cpu_cluster.cpus.icache.ReadReq_misses::.cpu_cluster.cpus.inst        68454                       # number of ReadReq misses
system.cpu_cluster.cpus.icache.ReadReq_misses::total        68454                       # number of ReadReq misses
system.cpu_cluster.cpus.icache.ReadReq_miss_latency::.cpu_cluster.cpus.inst    655721885                       # number of ReadReq miss cycles
system.cpu_cluster.cpus.icache.ReadReq_miss_latency::total    655721885                       # number of ReadReq miss cycles
system.cpu_cluster.cpus.icache.ReadReq_accesses::.cpu_cluster.cpus.inst     71538622                       # number of ReadReq accesses(hits+misses)
system.cpu_cluster.cpus.icache.ReadReq_accesses::total     71538622                       # number of ReadReq accesses(hits+misses)
system.cpu_cluster.cpus.icache.ReadReq_miss_rate::.cpu_cluster.cpus.inst     0.000957                       # miss rate for ReadReq accesses
system.cpu_cluster.cpus.icache.ReadReq_miss_rate::total     0.000957                       # miss rate for ReadReq accesses
system.cpu_cluster.cpus.icache.ReadReq_avg_miss_latency::.cpu_cluster.cpus.inst  9579.014886                       # average ReadReq miss latency
system.cpu_cluster.cpus.icache.ReadReq_avg_miss_latency::total  9579.014886                       # average ReadReq miss latency
system.cpu_cluster.cpus.icache.ReadReq_mshr_misses::.cpu_cluster.cpus.inst        68454                       # number of ReadReq MSHR misses
system.cpu_cluster.cpus.icache.ReadReq_mshr_misses::total        68454                       # number of ReadReq MSHR misses
system.cpu_cluster.cpus.icache.ReadReq_mshr_miss_latency::.cpu_cluster.cpus.inst    624575770                       # number of ReadReq MSHR miss cycles
system.cpu_cluster.cpus.icache.ReadReq_mshr_miss_latency::total    624575770                       # number of ReadReq MSHR miss cycles
system.cpu_cluster.cpus.icache.ReadReq_mshr_miss_rate::.cpu_cluster.cpus.inst     0.000957                       # mshr miss rate for ReadReq accesses
system.cpu_cluster.cpus.icache.ReadReq_mshr_miss_rate::total     0.000957                       # mshr miss rate for ReadReq accesses
system.cpu_cluster.cpus.icache.ReadReq_avg_mshr_miss_latency::.cpu_cluster.cpus.inst  9124.021533                       # average ReadReq mshr miss latency
system.cpu_cluster.cpus.icache.ReadReq_avg_mshr_miss_latency::total  9124.021533                       # average ReadReq mshr miss latency
system.cpu_cluster.cpus.icache.tags.pwrStateResidencyTicks::UNDEFINED 199414326020                       # Cumulative time (in ticks) in various power states
system.cpu_cluster.cpus.icache.tags.tagsinuse   510.896754                       # Cycle average of tags in use
system.cpu_cluster.cpus.icache.tags.total_refs     71538621                       # Total number of references to valid blocks.
system.cpu_cluster.cpus.icache.tags.sampled_refs        68453                       # Sample count of references to valid blocks.
system.cpu_cluster.cpus.icache.tags.avg_refs  1045.076490                       # Average number of references to valid blocks.
system.cpu_cluster.cpus.icache.tags.warmup_cycle        95095                       # Cycle when the warmup percentage was hit.
system.cpu_cluster.cpus.icache.tags.occ_blocks::.cpu_cluster.cpus.inst   510.896754                       # Average occupied blocks per requestor
system.cpu_cluster.cpus.icache.tags.occ_percent::.cpu_cluster.cpus.inst     0.997845                       # Average percentage of cache occupancy
system.cpu_cluster.cpus.icache.tags.occ_percent::total     0.997845                       # Average percentage of cache occupancy
system.cpu_cluster.cpus.icache.tags.occ_task_id_blocks::1024          512                       # Occupied blocks per task id
system.cpu_cluster.cpus.icache.tags.age_task_id_blocks_1024::0          139                       # Occupied blocks per task id
system.cpu_cluster.cpus.icache.tags.age_task_id_blocks_1024::1          222                       # Occupied blocks per task id
system.cpu_cluster.cpus.icache.tags.age_task_id_blocks_1024::2            2                       # Occupied blocks per task id
system.cpu_cluster.cpus.icache.tags.age_task_id_blocks_1024::3           39                       # Occupied blocks per task id
system.cpu_cluster.cpus.icache.tags.age_task_id_blocks_1024::4          110                       # Occupied blocks per task id
system.cpu_cluster.cpus.icache.tags.occ_task_id_percent::1024            1                       # Percentage of cache occupancy per task id
system.cpu_cluster.cpus.icache.tags.tag_accesses    143145697                       # Number of tag accesses
system.cpu_cluster.cpus.icache.tags.data_accesses    143145697                       # Number of data accesses
system.cpu_cluster.cpus.dtb.walker.pwrStateResidencyTicks::UNDEFINED 199414326020                       # Cumulative time (in ticks) in various power states
system.cpu_cluster.cpus.dtb.stage2_mmu.stage2_tlb.walker.pwrStateResidencyTicks::UNDEFINED 199414326020                       # Cumulative time (in ticks) in various power states
system.cpu_cluster.cpus.itb_walker_cache.pwrStateResidencyTicks::UNDEFINED 199414326020                       # Cumulative time (in ticks) in various power states
system.cpu_cluster.cpus.itb_walker_cache.blocked_cycles::no_mshrs            0                       # number of cycles access was blocked
system.cpu_cluster.cpus.itb_walker_cache.blocked_cycles::no_targets            0                       # number of cycles access was blocked
system.cpu_cluster.cpus.itb_walker_cache.blocked::no_mshrs            0                       # number of cycles access was blocked
system.cpu_cluster.cpus.itb_walker_cache.blocked::no_targets            0                       # number of cycles access was blocked
system.cpu_cluster.cpus.itb_walker_cache.avg_blocked_cycles::no_mshrs          nan                       # average number of cycles each access was blocked
system.cpu_cluster.cpus.itb_walker_cache.avg_blocked_cycles::no_targets          nan                       # average number of cycles each access was blocked
system.cpu_cluster.cpus.itb_walker_cache.replacements            0                       # number of replacements
system.cpu_cluster.cpus.itb_walker_cache.tags.pwrStateResidencyTicks::UNDEFINED 199414326020                       # Cumulative time (in ticks) in various power states
system.cpu_cluster.cpus.itb_walker_cache.tags.tagsinuse            0                       # Cycle average of tags in use
system.cpu_cluster.cpus.itb_walker_cache.tags.total_refs            0                       # Total number of references to valid blocks.
system.cpu_cluster.cpus.itb_walker_cache.tags.sampled_refs            0                       # Sample count of references to valid blocks.
system.cpu_cluster.cpus.itb_walker_cache.tags.avg_refs          nan                       # Average number of references to valid blocks.
system.cpu_cluster.cpus.itb_walker_cache.tags.warmup_cycle            0                       # Cycle when the warmup percentage was hit.
system.cpu_cluster.cpus.itb_walker_cache.tags.tag_accesses            0                       # Number of tag accesses
system.cpu_cluster.cpus.itb_walker_cache.tags.data_accesses            0                       # Number of data accesses
system.cpu_cluster.cpus.dtb_walker_cache.pwrStateResidencyTicks::UNDEFINED 199414326020                       # Cumulative time (in ticks) in various power states
system.cpu_cluster.cpus.dtb_walker_cache.blocked_cycles::no_mshrs            0                       # number of cycles access was blocked
system.cpu_cluster.cpus.dtb_walker_cache.blocked_cycles::no_targets            0                       # number of cycles access was blocked
system.cpu_cluster.cpus.dtb_walker_cache.blocked::no_mshrs            0                       # number of cycles access was blocked
system.cpu_cluster.cpus.dtb_walker_cache.blocked::no_targets            0                       # number of cycles access was blocked
system.cpu_cluster.cpus.dtb_walker_cache.avg_blocked_cycles::no_mshrs          nan                       # average number of cycles each access was blocked
system.cpu_cluster.cpus.dtb_walker_cache.avg_blocked_cycles::no_targets          nan                       # average number of cycles each access was blocked
system.cpu_cluster.cpus.dtb_walker_cache.replacements            0                       # number of replacements
system.cpu_cluster.cpus.dtb_walker_cache.tags.pwrStateResidencyTicks::UNDEFINED 199414326020                       # Cumulative time (in ticks) in various power states
system.cpu_cluster.cpus.dtb_walker_cache.tags.tagsinuse            0                       # Cycle average of tags in use
system.cpu_cluster.cpus.dtb_walker_cache.tags.total_refs            0                       # Total number of references to valid blocks.
[...]
system.mem_ctrls.rdQLenPdf::1                    4485                       # What read queue length does an incoming req see
system.mem_ctrls.rdQLenPdf::2                     814                       # What read queue length does an incoming req see
system.mem_ctrls.rdQLenPdf::3                     715                       # What read queue length does an incoming req see
system.mem_ctrls.rdQLenPdf::4                      93                       # What read queue length does an incoming req see
system.mem_ctrls.rdQLenPdf::5                      52                       # What read queue length does an incoming req see
system.mem_ctrls.rdQLenPdf::6                       0                       # What read queue length does an incoming req see
system.mem_ctrls.rdQLenPdf::7                       0                       # What read queue length does an incoming req see
system.mem_ctrls.rdQLenPdf::8                       0                       # What read queue length does an incoming req see
system.mem_ctrls.rdQLenPdf::9                       0                       # What read queue length does an incoming req see
system.mem_ctrls.rdQLenPdf::10                      0                       # What read queue length does an incoming req see
system.mem_ctrls.rdQLenPdf::11                      0                       # What read queue length does an incoming req see
system.mem_ctrls.rdQLenPdf::12                      0                       # What read queue length does an incoming req see
system.mem_ctrls.rdQLenPdf::13                      0                       # What read queue length does an incoming req see
system.mem_ctrls.rdQLenPdf::14                      0                       # What read queue length does an incoming req see
system.mem_ctrls.rdQLenPdf::15                      0                       # What read queue length does an incoming req see
system.mem_ctrls.rdQLenPdf::16                      0                       # What read queue length does an incoming req see
system.mem_ctrls.rdQLenPdf::17                      0                       # What read queue length does an incoming req see
system.mem_ctrls.rdQLenPdf::18                      0                       # What read queue length does an incoming req see
system.mem_ctrls.rdQLenPdf::19                      0                       # What read queue length does an incoming req see
system.mem_ctrls.rdQLenPdf::20                      0                       # What read queue length does an incoming req see
system.mem_ctrls.rdQLenPdf::21                      0                       # What read queue length does an incoming req see
system.mem_ctrls.rdQLenPdf::22                      0                       # What read queue length does an incoming req see
system.mem_ctrls.rdQLenPdf::23                      0                       # What read queue length does an incoming req see
system.mem_ctrls.rdQLenPdf::24                      0                       # What read queue length does an incoming req see
system.mem_ctrls.rdQLenPdf::25                      0                       # What read queue length does an incoming req see
system.mem_ctrls.rdQLenPdf::26                      0                       # What read queue length does an incoming req see
system.mem_ctrls.rdQLenPdf::27                      0                       # What read queue length does an incoming req see
system.mem_ctrls.rdQLenPdf::28                      0                       # What read queue length does an incoming req see
system.mem_ctrls.rdQLenPdf::29                      0                       # What read queue length does an incoming req see
system.mem_ctrls.rdQLenPdf::30                      0                       # What read queue length does an incoming req see
system.mem_ctrls.rdQLenPdf::31                      0                       # What read queue length does an incoming req see
system.mem_ctrls.wrQLenPdf::0                       0                       # What write queue length does an incoming req see
system.mem_ctrls.wrQLenPdf::1                       0                       # What write queue length does an incoming req see
system.mem_ctrls.wrQLenPdf::2                       0                       # What write queue length does an incoming req see
system.mem_ctrls.wrQLenPdf::3                       0                       # What write queue length does an incoming req see
system.mem_ctrls.wrQLenPdf::4                       0                       # What write queue length does an incoming req see
system.mem_ctrls.wrQLenPdf::5                       0                       # What write queue length does an incoming req see
system.mem_ctrls.wrQLenPdf::6                       0                       # What write queue length does an incoming req see
system.mem_ctrls.wrQLenPdf::7                       0                       # What write queue length does an incoming req see
system.mem_ctrls.wrQLenPdf::8                       0                       # What write queue length does an incoming req see
system.mem_ctrls.wrQLenPdf::9                       0                       # What write queue length does an incoming req see
system.mem_ctrls.wrQLenPdf::10                      0                       # What write queue length does an incoming req see
system.mem_ctrls.wrQLenPdf::11                      0                       # What write queue length does an incoming req see
system.mem_ctrls.wrQLenPdf::12                      0                       # What write queue length does an incoming req see
system.mem_ctrls.wrQLenPdf::13                      0                       # What write queue length does an incoming req see
system.mem_ctrls.wrQLenPdf::14                      0                       # What write queue length does an incoming req see
system.mem_ctrls.wrQLenPdf::15                      0                       # What write queue length does an incoming req see
system.mem_ctrls.wrQLenPdf::16                      0                       # What write queue length does an incoming req see
system.mem_ctrls.wrQLenPdf::17                      0                       # What write queue length does an incoming req see
system.mem_ctrls.wrQLenPdf::18                      0                       # What write queue length does an incoming req see
system.mem_ctrls.wrQLenPdf::19                      0                       # What write queue length does an incoming req see
system.mem_ctrls.wrQLenPdf::20                      0                       # What write queue length does an incoming req see
system.mem_ctrls.wrQLenPdf::21                      0                       # What write queue length does an incoming req see
system.mem_ctrls.wrQLenPdf::22                      0                       # What write queue length does an incoming req see
system.mem_ctrls.wrQLenPdf::23                      0                       # What write queue length does an incoming req see
system.mem_ctrls.wrQLenPdf::24                      0                       # What write queue length does an incoming req see
system.mem_ctrls.wrQLenPdf::25                      0                       # What write queue length does an incoming req see
system.mem_ctrls.wrQLenPdf::26                      0                       # What write queue length does an incoming req see
system.mem_ctrls.wrQLenPdf::27                      0                       # What write queue length does an incoming req see
system.mem_ctrls.wrQLenPdf::28                      0                       # What write queue length does an incoming req see
system.mem_ctrls.wrQLenPdf::29                      0                       # What write queue length does an incoming req see
system.mem_ctrls.wrQLenPdf::30                      0                       # What write queue length does an incoming req see
system.mem_ctrls.wrQLenPdf::31                      0                       # What write queue length does an incoming req see
system.mem_ctrls.wrQLenPdf::32                      0                       # What write queue length does an incoming req see
system.mem_ctrls.wrQLenPdf::33                      0                       # What write queue length does an incoming req see
system.mem_ctrls.wrQLenPdf::34                      0                       # What write queue length does an incoming req see
system.mem_ctrls.wrQLenPdf::35                      0                       # What write queue length does an incoming req see
system.mem_ctrls.wrQLenPdf::36                      0                       # What write queue length does an incoming req see
system.mem_ctrls.wrQLenPdf::37                      0                       # What write queue length does an incoming req see
system.mem_ctrls.wrQLenPdf::38                      0                       # What write queue length does an incoming req see
system.mem_ctrls.wrQLenPdf::39                      0                       # What write queue length does an incoming req see
system.mem_ctrls.wrQLenPdf::40                      0                       # What write queue length does an incoming req see
system.mem_ctrls.wrQLenPdf::41                      0                       # What write queue length does an incoming req see
system.mem_ctrls.wrQLenPdf::42                      0                       # What write queue length does an incoming req see
system.mem_ctrls.wrQLenPdf::43                      0                       # What write queue length does an incoming req see
system.mem_ctrls.wrQLenPdf::44                      0                       # What write queue length does an incoming req see
system.mem_ctrls.wrQLenPdf::45                      0                       # What write queue length does an incoming req see
system.mem_ctrls.wrQLenPdf::46                      0                       # What write queue length does an incoming req see
system.mem_ctrls.wrQLenPdf::47                      0                       # What write queue length does an incoming req see
system.mem_ctrls.wrQLenPdf::48                      0                       # What write queue length does an incoming req see
system.mem_ctrls.wrQLenPdf::49                      0                       # What write queue length does an incoming req see
system.mem_ctrls.wrQLenPdf::50                      0                       # What write queue length does an incoming req see
system.mem_ctrls.wrQLenPdf::51                      0                       # What write queue length does an incoming req see
system.mem_ctrls.wrQLenPdf::52                      0                       # What write queue length does an incoming req see
system.mem_ctrls.wrQLenPdf::53                      0                       # What write queue length does an incoming req see
system.mem_ctrls.wrQLenPdf::54                      0                       # What write queue length does an incoming req see
system.mem_ctrls.wrQLenPdf::55                      0                       # What write queue length does an incoming req see
system.mem_ctrls.wrQLenPdf::56                      0                       # What write queue length does an incoming req see
system.mem_ctrls.wrQLenPdf::57                      0                       # What write queue length does an incoming req see
system.mem_ctrls.wrQLenPdf::58                      0                       # What write queue length does an incoming req see
system.mem_ctrls.wrQLenPdf::59                      0                       # What write queue length does an incoming req see
system.mem_ctrls.wrQLenPdf::60                      0                       # What write queue length does an incoming req see
system.mem_ctrls.wrQLenPdf::61                      0                       # What write queue length does an incoming req see
system.mem_ctrls.wrQLenPdf::62                      0                       # What write queue length does an incoming req see
system.mem_ctrls.wrQLenPdf::63                      0                       # What write queue length does an incoming req see
system.mem_ctrls.bytesPerActivate::samples         1595                       # Bytes accessed per row activation
system.mem_ctrls.bytesPerActivate::mean    209.936050                       # Bytes accessed per row activation
system.mem_ctrls.bytesPerActivate::gmean   148.735836                       # Bytes accessed per row activation
system.mem_ctrls.bytesPerActivate::stdev   170.960893                       # Bytes accessed per row activation
system.mem_ctrls.bytesPerActivate::0-63             3      0.19%      0.19% # Bytes accessed per row activation
system.mem_ctrls.bytesPerActivate::64-127          675     42.32%     42.51% # Bytes accessed per row activation
system.mem_ctrls.bytesPerActivate::128-191          215     13.48%     55.99% # Bytes accessed per row activation
system.mem_ctrls.bytesPerActivate::192-255          125      7.84%     63.82% # Bytes accessed per row activation
system.mem_ctrls.bytesPerActivate::256-319           95      5.96%     69.78% # Bytes accessed per row activation
system.mem_ctrls.bytesPerActivate::320-383          118      7.40%     77.18% # Bytes accessed per row activation
system.mem_ctrls.bytesPerActivate::384-447           50      3.13%     80.31% # Bytes accessed per row activation
system.mem_ctrls.bytesPerActivate::448-511           33      2.07%     82.38% # Bytes accessed per row activation
system.mem_ctrls.bytesPerActivate::512-575          281     17.62%    100.00% # Bytes accessed per row activation
system.mem_ctrls.bytesPerActivate::total         1595                       # Bytes accessed per row activation
system.mem_ctrls.bytesReadDRAM                 336128                       # Total number of bytes read from DRAM
system.mem_ctrls.bytesReadWrQ                       0                       # Total number of bytes read from write queue
system.mem_ctrls.bytesWritten                       0                       # Total number of bytes written to DRAM
system.mem_ctrls.bytesReadSys                  336128                       # Total read bytes from the system interface side
system.mem_ctrls.bytesWrittenSys                    0                       # Total written bytes from the system interface side
system.mem_ctrls.avgRdBW                         1.69                       # Average DRAM read bandwidth in MiByte/s
system.mem_ctrls.avgWrBW                         0.00                       # Average achieved write bandwidth in MiByte/s
system.mem_ctrls.avgRdBWSys                      1.69                       # Average system read bandwidth in MiByte/s
system.mem_ctrls.avgWrBWSys                      0.00                       # Average system write bandwidth in MiByte/s
system.mem_ctrls.peakBW                       6400.00                       # Theoretical peak bandwidth in MiByte/s
system.mem_ctrls.busUtil                         0.03                       # Data bus utilization in percentage
system.mem_ctrls.busUtilRead                     0.03                       # Data bus utilization in percentage for reads
system.mem_ctrls.busUtilWrite                    0.00                       # Data bus utilization in percentage for writes
system.mem_ctrls.totGap                  199414255950                       # Total gap between requests
system.mem_ctrls.avgGap                   37969203.34                       # Average gap between requests
system.mem_ctrls.masterReadBytes::.cpu_cluster.cpus.inst       117120                       # Per-master bytes read from memory
system.mem_ctrls.masterReadBytes::.cpu_cluster.cpus.data       177408                       # Per-master bytes read from memory
system.mem_ctrls.masterReadBytes::.cpu_cluster.cpus.dcache.prefetcher        41600                       # Per-master bytes read from memory
system.mem_ctrls.masterReadRate::.cpu_cluster.cpus.inst 587319.889887217083                       # Per-master bytes read from memory rate (Bytes/sec)
system.mem_ctrls.masterReadRate::.cpu_cluster.cpus.data 889645.210255391081                       # Per-master bytes read from memory rate (Bytes/sec)
system.mem_ctrls.masterReadRate::.cpu_cluster.cpus.dcache.prefetcher 208610.889850650856                       # Per-master bytes read from memory rate (Bytes/sec)
system.mem_ctrls.masterReadAccesses::.cpu_cluster.cpus.inst         3660                       # Per-master read serviced memory accesses
system.mem_ctrls.masterReadAccesses::.cpu_cluster.cpus.data         5544                       # Per-master read serviced memory accesses
system.mem_ctrls.masterReadAccesses::.cpu_cluster.cpus.dcache.prefetcher         1300                       # Per-master read serviced memory accesses
system.mem_ctrls.masterReadTotalLat::.cpu_cluster.cpus.inst    122089864                       # Per-master read total memory access latency
system.mem_ctrls.masterReadTotalLat::.cpu_cluster.cpus.data    187837450                       # Per-master read total memory access latency
system.mem_ctrls.masterReadTotalLat::.cpu_cluster.cpus.dcache.prefetcher     42668882                       # Per-master read total memory access latency
system.mem_ctrls.masterReadAvgLat::.cpu_cluster.cpus.inst     33357.89                       # Per-master read average memory access latency
system.mem_ctrls.masterReadAvgLat::.cpu_cluster.cpus.data     33881.21                       # Per-master read average memory access latency
system.mem_ctrls.masterReadAvgLat::.cpu_cluster.cpus.dcache.prefetcher     32822.22                       # Per-master read average memory access latency
system.mem_ctrls.pageHitRate                    84.77                       # Row buffer hit rate, read and write combined
system.mem_ctrls.rank0.actEnergy              2856000                       # Energy for activate commands per rank (pJ)
system.mem_ctrls.rank0.preEnergy         1500576.000000                       # Energy for precharge commands per rank (pJ)
system.mem_ctrls.rank0.readEnergy            12352704                       # Energy for read commands per rank (pJ)
system.mem_ctrls.rank0.writeEnergy                  0                       # Energy for write commands per rank (pJ)
system.mem_ctrls.rank0.refreshEnergy       1242078240                       # Energy for refresh commands per rank (pJ)
system.mem_ctrls.rank0.actBackEnergy     313885855.500000                       # Energy for active background per rank (pJ)
system.mem_ctrls.rank0.preBackEnergy     6278135088.004580                       # Energy for precharge background per rank (pJ)
system.mem_ctrls.rank0.actPowerDownEnergy            0                       # Energy for active power-down per rank (pJ)
system.mem_ctrls.rank0.prePowerDownEnergy            0                       # Energy for precharge power-down per rank (pJ)
system.mem_ctrls.rank0.selfRefreshEnergy            0                       # Energy for self refresh per rank (pJ)
system.mem_ctrls.rank0.totalEnergy       7850808463.506814                       # Total energy per rank (pJ)
system.mem_ctrls.rank0.averagePower         39.369330                       # Core power per rank (mW)
system.mem_ctrls.rank0.totalIdleTime                0                       # Total Idle time Per DRAM Rank
system.mem_ctrls.rank0.memoryStateTime::IDLE 191368369285                       # Time in different power states
system.mem_ctrls.rank0.memoryStateTime::REF   6677840000                       # Time in different power states
system.mem_ctrls.rank0.memoryStateTime::SREF            0                       # Time in different power states
system.mem_ctrls.rank0.memoryStateTime::PRE_PDN            0                       # Time in different power states
system.mem_ctrls.rank0.memoryStateTime::ACT   1368116735                       # Time in different power states
system.mem_ctrls.rank0.memoryStateTime::ACT_PDN            0                       # Time in different power states

---------- End Simulation Statistics   ----------
