
---------- Begin Simulation Statistics ----------
final_tick                               192321633777                       # Number of ticks from beginning of simulation (restored from checkpoints and never reset)
host_inst_rate                                  74049                       # Simulator instruction rate (inst/s)
host_mem_usage                                4615064                       # Number of bytes of host memory used
host_op_rate                                    89905                       # Simulator op (including micro ops) rate (op/s)
host_seconds                                  9835.97                       # Real time elapsed on the host
host_tick_rate                               19552888                       # Simulator tick rate (ticks/s)
sim_freq                                 1000000000000                       # Frequency of simulated ticks
sim_insts                                   728341928                       # Number of instructions simulated
sim_ops                                     884302968                       # Number of ops (including micro ops) simulated
sim_seconds                                  0.192322                       # Number of seconds simulated
sim_ticks                                192321633777                       # Number of ticks simulated
system.cpu_cluster.cpus.branchPred.BTBCorrect            0                       # Number of correct BTB predictions (this stat may not work properly.
system.cpu_cluster.cpus.branchPred.BTBHitPct    99.151860                       # BTB Hit Percentage
system.cpu_cluster.cpus.branchPred.BTBHits     32813362                       # Number of BTB hits
system.cpu_cluster.cpus.branchPred.BTBLookups     33094046                       # Number of BTB lookups
system.cpu_cluster.cpus.branchPred.RASInCorrect           11                       # Number of incorrect RAS predictions.
system.cpu_cluster.cpus.branchPred.condIncorrect      4619283                       # Number of conditional branches incorrect
system.cpu_cluster.cpus.branchPred.condPredicted    100522645                       # Number of conditional branches predicted
system.cpu_cluster.cpus.branchPred.indirectHits       143834                       # Number of indirect target hits.
system.cpu_cluster.cpus.branchPred.indirectLookups       146856                       # Number of indirect predictor lookups.
system.cpu_cluster.cpus.branchPred.indirectMisses         3022                       # Number of indirect misses.
system.cpu_cluster.cpus.branchPred.lookups    112440950                       # Number of BP lookups
system.cpu_cluster.cpus.branchPred.usedRAS      5082268                       # Number of times the RAS was used to get a target.
system.cpu_cluster.cpus.branchPredindirectMispredicted         6049                       # Number of mispredicted indirect branches.
system.cpu_cluster.cpus.cc_regfile_reads    288079626                       # number of cc regfile reads
system.cpu_cluster.cpus.cc_regfile_writes    289966929                       # number of cc regfile writes
system.cpu_cluster.cpus.commit.amos               232                       # Number of atomic instructions committed
system.cpu_cluster.cpus.commit.branchMispredicts      4598261                       # The number of times a branch was mispredicted
system.cpu_cluster.cpus.commit.branches      90549241                       # Number of branches committed
system.cpu_cluster.cpus.commit.bw_lim_events     24619037                       # number cycles where commit BW limit reached
system.cpu_cluster.cpus.commit.commitNonSpecStalls        40562                       # The number of times commit has been forced to stall to communicate backwards
system.cpu_cluster.cpus.commit.commitSquashedInsts     89568690                       # The number of squashed insts skipped by commit
system.cpu_cluster.cpus.commit.committedInsts    728356779                       # Number of instructions committed
system.cpu_cluster.cpus.commit.committedOps    884317819                       # Number of ops (including micro ops) committed
system.cpu_cluster.cpus.commit.committed_per_cycle::samples    524534669                       # Number of insts commited each cycle
system.cpu_cluster.cpus.commit.committed_per_cycle::mean     1.685909                       # Number of insts commited each cycle
system.cpu_cluster.cpus.commit.committed_per_cycle::stdev     2.140859                       # Number of insts commited each cycle
system.cpu_cluster.cpus.commit.committed_per_cycle::underflows            0      0.00%      0.00% # Number of insts commited each cycle
system.cpu_cluster.cpus.commit.committed_per_cycle::0    192180396     36.64%     36.64% # Number of insts commited each cycle
system.cpu_cluster.cpus.commit.committed_per_cycle::1    145497337     27.74%     64.38% # Number of insts commited each cycle
system.cpu_cluster.cpus.commit.committed_per_cycle::2     71618814     13.65%     78.03% # Number of insts commited each cycle
system.cpu_cluster.cpus.commit.committed_per_cycle::3     25356674      4.83%     82.86% # Number of insts commited each cycle
system.cpu_cluster.cpus.commit.committed_per_cycle::4     27309641      5.21%     88.07% # Number of insts commited each cycle
system.cpu_cluster.cpus.commit.committed_per_cycle::5     21521358      4.10%     92.17% # Number of insts commited each cycle
system.cpu_cluster.cpus.commit.committed_per_cycle::6      9304702      1.77%     93.95% # Number of insts commited each cycle
system.cpu_cluster.cpus.commit.committed_per_cycle::7      7126710      1.36%     95.31% # Number of insts commited each cycle
system.cpu_cluster.cpus.commit.committed_per_cycle::8     24619037      4.69%    100.00% # Number of insts commited each cycle
system.cpu_cluster.cpus.commit.committed_per_cycle::overflows            0      0.00%    100.00% # Number of insts commited each cycle
system.cpu_cluster.cpus.commit.committed_per_cycle::min_value            0                       # Number of insts commited each cycle
system.cpu_cluster.cpus.commit.committed_per_cycle::max_value            8                       # Number of insts commited each cycle
system.cpu_cluster.cpus.commit.committed_per_cycle::total    524534669                       # Number of insts commited each cycle
system.cpu_cluster.cpus.commit.fp_insts             0                       # Number of committed floating point instructions.
system.cpu_cluster.cpus.commit.function_calls      3965232                       # Number of function calls committed.
system.cpu_cluster.cpus.commit.int_insts    802072429                       # Number of committed integer instructions.
system.cpu_cluster.cpus.commit.loads        216947202                       # Number of loads committed
system.cpu_cluster.cpus.commit.membars            257                       # Number of memory barriers committed
system.cpu_cluster.cpus.commit.op_class_0::No_OpClass        45399      0.01%      0.01% # Class of committed instruction
system.cpu_cluster.cpus.commit.op_class_0::IntAlu    543350233     61.44%     61.45% # Class of committed instruction
system.cpu_cluster.cpus.commit.op_class_0::IntMult        19201      0.00%     61.45% # Class of committed instruction
system.cpu_cluster.cpus.commit.op_class_0::IntDiv           33      0.00%     61.45% # Class of committed instruction
system.cpu_cluster.cpus.commit.op_class_0::FloatAdd         3384      0.00%     61.45% # Class of committed instruction
system.cpu_cluster.cpus.commit.op_class_0::FloatCmp           12      0.00%     61.45% # Class of committed instruction
system.cpu_cluster.cpus.commit.op_class_0::FloatCvt         3385      0.00%     61.45% # Class of committed instruction
system.cpu_cluster.cpus.commit.op_class_0::FloatMult            0      0.00%     61.45% # Class of committed instruction
system.cpu_cluster.cpus.commit.op_class_0::FloatMultAcc            0      0.00%     61.45% # Class of committed instruction
system.cpu_cluster.cpus.commit.op_class_0::FloatDiv         3387      0.00%     61.45% # Class of committed instruction
system.cpu_cluster.cpus.commit.op_class_0::FloatMisc        13982      0.00%     61.45% # Class of committed instruction
system.cpu_cluster.cpus.commit.op_class_0::FloatSqrt            0      0.00%     61.45% # Class of committed instruction
system.cpu_cluster.cpus.commit.op_class_0::SimdAdd        12972      0.00%     61.45% # Class of committed instruction
system.cpu_cluster.cpus.commit.op_class_0::SimdAddAcc            0      0.00%     61.45% # Class of committed instruction
system.cpu_cluster.cpus.commit.op_class_0::SimdAlu        12992      0.00%     61.46% # Class of committed instruction
system.cpu_cluster.cpus.commit.op_class_0::SimdCmp        14001      0.00%     61.46% # Class of committed instruction
system.cpu_cluster.cpus.commit.op_class_0::SimdCvt            2      0.00%     61.46% # Class of committed instruction
system.cpu_cluster.cpus.commit.op_class_0::SimdMisc       199598      0.02%     61.48% # Class of committed instruction
system.cpu_cluster.cpus.commit.op_class_0::SimdMult            0      0.00%     61.48% # Class of committed instruction
system.cpu_cluster.cpus.commit.op_class_0::SimdMultAcc            0      0.00%     61.48% # Class of committed instruction
system.cpu_cluster.cpus.commit.op_class_0::SimdShift            2      0.00%     61.48% # Class of committed instruction
system.cpu_cluster.cpus.commit.op_class_0::SimdShiftAcc            0      0.00%     61.48% # Class of committed instruction
system.cpu_cluster.cpus.commit.op_class_0::SimdDiv            0      0.00%     61.48% # Class of committed instruction
system.cpu_cluster.cpus.commit.op_class_0::SimdSqrt            0      0.00%     61.48% # Class of committed instruction
system.cpu_cluster.cpus.commit.op_class_0::SimdFloatAdd            0      0.00%     61.48% # Class of committed instruction
system.cpu_cluster.cpus.commit.op_class_0::SimdFloatAlu            0      0.00%     61.48% # Class of committed instruction
system.cpu_cluster.cpus.commit.op_class_0::SimdFloatCmp            0      0.00%     61.48% # Class of committed instruction
system.cpu_cluster.cpus.commit.op_class_0::SimdFloatCvt            0      0.00%     61.48% # Class of committed instruction
system.cpu_cluster.cpus.commit.op_class_0::SimdFloatDiv            0      0.00%     61.48% # Class of committed instruction
system.cpu_cluster.cpus.commit.op_class_0::SimdFloatMisc            0      0.00%     61.48% # Class of committed instruction
system.cpu_cluster.cpus.commit.op_class_0::SimdFloatMult            0      0.00%     61.48% # Class of committed instruction
system.cpu_cluster.cpus.commit.op_class_0::SimdFloatMultAcc            0      0.00%     61.48% # Class of committed instruction
system.cpu_cluster.cpus.commit.op_class_0::SimdFloatSqrt            0      0.00%     61.48% # Class of committed instruction
system.cpu_cluster.cpus.commit.op_class_0::SimdReduceAdd            0      0.00%     61.48% # Class of committed instruction
system.cpu_cluster.cpus.commit.op_class_0::SimdReduceAlu            0      0.00%     61.48% # Class of committed instruction
system.cpu_cluster.cpus.commit.op_class_0::SimdReduceCmp            0      0.00%     61.48% # Class of committed instruction
system.cpu_cluster.cpus.commit.op_class_0::SimdFloatReduceAdd            0      0.00%     61.48% # Class of committed instruction
system.cpu_cluster.cpus.commit.op_class_0::SimdFloatReduceCmp            0      0.00%     61.48% # Class of committed instruction
system.cpu_cluster.cpus.commit.op_class_0::SimdAes            0      0.00%     61.48% # Class of committed instruction
system.cpu_cluster.cpus.commit.op_class_0::SimdAesMix            0      0.00%     61.48% # Class of committed instruction
system.cpu_cluster.cpus.commit.op_class_0::SimdSha1Hash            0      0.00%     61.48% # Class of committed instruction
system.cpu_cluster.cpus.commit.op_class_0::SimdSha1Hash2            0      0.00%     61.48% # Class of committed instruction
system.cpu_cluster.cpus.commit.op_class_0::SimdSha256Hash            0      0.00%     61.48% # Class of committed instruction
system.cpu_cluster.cpus.commit.op_class_0::SimdSha256Hash2            0      0.00%     61.48% # Class of committed instruction
system.cpu_cluster.cpus.commit.op_class_0::SimdShaSigma2            0      0.00%     61.48% # Class of committed instruction
system.cpu_cluster.cpus.commit.op_class_0::SimdShaSigma3            0      0.00%     61.48% # Class of committed instruction
system.cpu_cluster.cpus.commit.op_class_0::SimdPredAlu            0      0.00%     61.48% # Class of committed instruction
system.cpu_cluster.cpus.commit.op_class_0::MemRead    216947202     24.53%     86.01% # Class of committed instruction
system.cpu_cluster.cpus.commit.op_class_0::MemWrite    123692034     13.99%    100.00% # Class of committed instruction
system.cpu_cluster.cpus.commit.op_class_0::FloatMemRead            0      0.00%    100.00% # Class of committed instruction
system.cpu_cluster.cpus.commit.op_class_0::FloatMemWrite            0      0.00%    100.00% # Class of committed instruction
system.cpu_cluster.cpus.commit.op_class_0::IprAccess            0      0.00%    100.00% # Class of committed instruction
system.cpu_cluster.cpus.commit.op_class_0::InstPrefetch            0      0.00%    100.00% # Class of committed instruction
system.cpu_cluster.cpus.commit.op_class_0::total    884317819                       # Class of committed instruction
system.cpu_cluster.cpus.commit.refs         340639236                       # Number of memory references committed
system.cpu_cluster.cpus.commit.swp_count            0                       # Number of s/w prefetches committed
system.cpu_cluster.cpus.commit.vec_insts       647116                       # Number of committed Vector instructions.
system.cpu_cluster.cpus.committedInsts      728341928                       # Number of Instructions Simulated
system.cpu_cluster.cpus.committedOps        884302968                       # Number of Ops (including micro ops) Simulated
system.cpu_cluster.cpus.cpi                  0.739647                       # CPI: Cycles Per Instruction
system.cpu_cluster.cpus.cpi_total            0.739647                       # CPI: Total CPI of All Threads
system.cpu_cluster.cpus.decode.BlockedCycles     97813267                       # Number of cycles decode is blocked
system.cpu_cluster.cpus.decode.BranchMispred        21102                       # Number of times decode detected a branch misprediction
system.cpu_cluster.cpus.decode.BranchResolved     30219335                       # Number of times decode resolved a branch
system.cpu_cluster.cpus.decode.DecodedInsts   1010580007                       # Number of instructions handled by decode
system.cpu_cluster.cpus.decode.IdleCycles     49433954                       # Number of cycles decode is idle
system.cpu_cluster.cpus.decode.RunCycles    333192441                       # Number of cycles decode is running
system.cpu_cluster.cpus.decode.SquashCycles      4608879                       # Number of cycles decode is squashing
system.cpu_cluster.cpus.decode.SquashedInsts     19571848                       # Number of squashed instructions handled by decode
system.cpu_cluster.cpus.decode.UnblockCycles     53449652                       # Number of cycles decode is unblocking
system.cpu_cluster.cpus.dtb.accesses                0                       # DTB accesses
system.cpu_cluster.cpus.dtb.align_faults            0                       # Number of TLB faults due to alignment restrictions
system.cpu_cluster.cpus.dtb.domain_faults            0                       # Number of TLB faults due to domain restrictions
system.cpu_cluster.cpus.dtb.flush_entries            0                       # Number of entries that have been flushed from TLB
system.cpu_cluster.cpus.dtb.flush_tlb               0                       # Number of times complete TLB was flushed
system.cpu_cluster.cpus.dtb.flush_tlb_asid            0                       # Number of times TLB was flushed by ASID
system.cpu_cluster.cpus.dtb.flush_tlb_mva            0                       # Number of times TLB was flushed by MVA
system.cpu_cluster.cpus.dtb.flush_tlb_mva_asid            0                       # Number of times TLB was flushed by MVA & ASID
system.cpu_cluster.cpus.dtb.hits                    0                       # DTB hits
system.cpu_cluster.cpus.dtb.inst_accesses            0                       # ITB inst accesses
system.cpu_cluster.cpus.dtb.inst_hits               0                       # ITB inst hits
system.cpu_cluster.cpus.dtb.inst_misses             0                       # ITB inst misses
system.cpu_cluster.cpus.dtb.misses                  0                       # DTB misses
system.cpu_cluster.cpus.dtb.perms_faults            0                       # Number of TLB faults due to permissions restrictions
system.cpu_cluster.cpus.dtb.prefetch_faults            0                       # Number of TLB faults due to prefetch
system.cpu_cluster.cpus.dtb.read_accesses            0                       # DTB read accesses
system.cpu_cluster.cpus.dtb.read_hits               0                       # DTB read hits
system.cpu_cluster.cpus.dtb.read_misses             0                       # DTB read misses
system.cpu_cluster.cpus.dtb.stage2_mmu.stage2_tlb.accesses            0                       # DTB accesses
system.cpu_cluster.cpus.dtb.stage2_mmu.stage2_tlb.align_faults            0                       # Number of TLB faults due to alignment restrictions
system.cpu_cluster.cpus.dtb.stage2_mmu.stage2_tlb.domain_faults            0                       # Number of TLB faults due to domain restrictions
system.cpu_cluster.cpus.dtb.stage2_mmu.stage2_tlb.flush_entries            0                       # Number of entries that have been flushed from TLB
system.cpu_cluster.cpus.dtb.stage2_mmu.stage2_tlb.flush_tlb            0                       # Number of times complete TLB was flushed
system.cpu_cluster.cpus.dtb.stage2_mmu.stage2_tlb.flush_tlb_asid            0                       # Number of times TLB was flushed by ASID
system.cpu_cluster.cpus.dtb.stage2_mmu.stage2_tlb.flush_tlb_mva            0                       # Number of times TLB was flushed by MVA
system.cpu_cluster.cpus.dtb.stage2_mmu.stage2_tlb.flush_tlb_mva_asid            0                       # Number of times TLB was flushed by MVA & ASID
system.cpu_cluster.cpus.dtb.stage2_mmu.stage2_tlb.hits            0                       # DTB hits
system.cpu_cluster.cpus.dtb.stage2_mmu.stage2_tlb.inst_accesses            0                       # ITB inst accesses
system.cpu_cluster.cpus.dtb.stage2_mmu.stage2_tlb.inst_hits            0                       # ITB inst hits
system.cpu_cluster.cpus.dtb.stage2_mmu.stage2_tlb.inst_misses            0                       # ITB inst misses
system.cpu_cluster.cpus.dtb.stage2_mmu.stage2_tlb.misses            0                       # DTB misses
system.cpu_cluster.cpus.dtb.stage2_mmu.stage2_tlb.perms_faults            0                       # Number of TLB faults due to permissions restrictions
system.cpu_cluster.cpus.dtb.stage2_mmu.stage2_tlb.prefetch_faults            0                       # Number of TLB faults due to prefetch
system.cpu_cluster.cpus.dtb.stage2_mmu.stage2_tlb.read_accesses            0                       # DTB read accesses
system.cpu_cluster.cpus.dtb.stage2_mmu.stage2_tlb.read_hits            0                       # DTB read hits
system.cpu_cluster.cpus.dtb.stage2_mmu.stage2_tlb.read_misses            0                       # DTB read misses
system.cpu_cluster.cpus.dtb.stage2_mmu.stage2_tlb.walker.walkRequestOrigin_Requested::Data            0                       # Table walker requests started/completed, data/inst
system.cpu_cluster.cpus.dtb.stage2_mmu.stage2_tlb.walker.walkRequestOrigin_Requested::Inst            0                       # Table walker requests started/completed, data/inst
system.cpu_cluster.cpus.dtb.stage2_mmu.stage2_tlb.walker.walkRequestOrigin_Requested::total            0                       # Table walker requests started/completed, data/inst
system.cpu_cluster.cpus.dtb.stage2_mmu.stage2_tlb.walker.walkRequestOrigin_Completed::Data            0                       # Table walker requests started/completed, data/inst
system.cpu_cluster.cpus.dtb.stage2_mmu.stage2_tlb.walker.walkRequestOrigin_Completed::Inst            0                       # Table walker requests started/completed, data/inst
system.cpu_cluster.cpus.dtb.stage2_mmu.stage2_tlb.walker.walkRequestOrigin_Completed::total            0                       # Table walker requests started/completed, data/inst
system.cpu_cluster.cpus.dtb.stage2_mmu.stage2_tlb.walker.walkRequestOrigin::total            0                       # Table walker requests started/completed, data/inst
system.cpu_cluster.cpus.dtb.stage2_mmu.stage2_tlb.walker.walks            0                       # Table walker walks requested
system.cpu_cluster.cpus.dtb.stage2_mmu.stage2_tlb.write_accesses            0                       # DTB write accesses
system.cpu_cluster.cpus.dtb.stage2_mmu.stage2_tlb.write_hits            0                       # DTB write hits
system.cpu_cluster.cpus.dtb.stage2_mmu.stage2_tlb.write_misses            0                       # DTB write misses
system.cpu_cluster.cpus.dtb.walker.walkRequestOrigin_Requested::Data            0                       # Table walker requests started/completed, data/inst
system.cpu_cluster.cpus.dtb.walker.walkRequestOrigin_Requested::Inst            0                       # Table walker requests started/completed, data/inst
system.cpu_cluster.cpus.dtb.walker.walkRequestOrigin_Requested::total            0                       # Table walker requests started/completed, data/inst
system.cpu_cluster.cpus.dtb.walker.walkRequestOrigin_Completed::Data            0                       # Table walker requests started/completed, data/inst
system.cpu_cluster.cpus.dtb.walker.walkRequestOrigin_Completed::Inst            0                       # Table walker requests started/completed, data/inst
system.cpu_cluster.cpus.dtb.walker.walkRequestOrigin_Completed::total            0                       # Table walker requests started/completed, data/inst
system.cpu_cluster.cpus.dtb.walker.walkRequestOrigin::total            0                       # Table walker requests started/completed, data/inst
system.cpu_cluster.cpus.dtb.walker.walks            0                       # Table walker walks requested
system.cpu_cluster.cpus.dtb.write_accesses            0                       # DTB write accesses
system.cpu_cluster.cpus.dtb.write_hits              0                       # DTB write hits
system.cpu_cluster.cpus.dtb.write_misses            0                       # DTB write misses
system.cpu_cluster.cpus.fetch.Branches      112440950                       # Number of branches that fetch encountered
system.cpu_cluster.cpus.fetch.CacheLines    259296120                       # Number of cache lines fetched
system.cpu_cluster.cpus.fetch.Cycles        528656092                       # Number of cycles fetch has run and was not squashing or blocked
system.cpu_cluster.cpus.fetch.IcacheSquashes         7575                       # Number of outstanding Icache misses that were squashed
system.cpu_cluster.cpus.fetch.IcacheWaitRetryStallCycles         2561                       # Number of stall cycles due to full MSHR
system.cpu_cluster.cpus.fetch.Insts         908001096                       # Number of instructions fetch has processed
system.cpu_cluster.cpus.fetch.MiscStallCycles         1160                       # Number of cycles fetch has spent waiting on interrupts, or bad addresses, or out of MSHRs
system.cpu_cluster.cpus.fetch.SquashCycles      9259802                       # Number of cycles fetch has spent squashing
system.cpu_cluster.cpus.fetch.branchRate     0.208720                       # Number of branch fetches per cycle
system.cpu_cluster.cpus.fetch.icacheStallCycles      5208479                       # Number of cycles fetch is stalled on an Icache miss
system.cpu_cluster.cpus.fetch.predictedBranches     38039464                       # Number of branches that fetch has predicted taken
system.cpu_cluster.cpus.fetch.rate           1.685491                       # Number of inst fetches per cycle
system.cpu_cluster.cpus.fetch.rateDist::samples    538498193                       # Number of instructions fetched each cycle (Total)
system.cpu_cluster.cpus.fetch.rateDist::mean     2.043556                       # Number of instructions fetched each cycle (Total)
system.cpu_cluster.cpus.fetch.rateDist::stdev     1.050051                       # Number of instructions fetched each cycle (Total)
system.cpu_cluster.cpus.fetch.rateDist::underflows            0      0.00%      0.00% # Number of instructions fetched each cycle (Total)
system.cpu_cluster.cpus.fetch.rateDist::0     41264514      7.66%      7.66% # Number of instructions fetched each cycle (Total)
system.cpu_cluster.cpus.fetch.rateDist::1    161865533     30.06%     37.72% # Number of instructions fetched each cycle (Total)
system.cpu_cluster.cpus.fetch.rateDist::2     67518587     12.54%     50.26% # Number of instructions fetched each cycle (Total)
system.cpu_cluster.cpus.fetch.rateDist::3    267849559     49.74%    100.00% # Number of instructions fetched each cycle (Total)
system.cpu_cluster.cpus.fetch.rateDist::overflows            0      0.00%    100.00% # Number of instructions fetched each cycle (Total)
system.cpu_cluster.cpus.fetch.rateDist::min_value            0                       # Number of instructions fetched each cycle (Total)
system.cpu_cluster.cpus.fetch.rateDist::max_value            3                       # Number of instructions fetched each cycle (Total)
system.cpu_cluster.cpus.fetch.rateDist::total    538498193                       # Number of instructions fetched each cycle (Total)
system.cpu_cluster.cpus.idleCycles             217869                       # Total number of cycles that the CPU has spent unscheduled due to idling
system.cpu_cluster.cpus.iew.branchMispredicts      4734836                       # Number of branch mispredicts detected at execute
system.cpu_cluster.cpus.iew.exec_branches     93009776                       # Number of branches executed
system.cpu_cluster.cpus.iew.exec_nop            16453                       # number of nop insts executed
system.cpu_cluster.cpus.iew.exec_rate        1.725227                       # Inst execution rate
system.cpu_cluster.cpus.iew.exec_refs       353889097                       # number of memory reference insts executed
system.cpu_cluster.cpus.iew.exec_stores     126411979                       # Number of stores executed
system.cpu_cluster.cpus.iew.exec_swp                0                       # number of swp insts executed
system.cpu_cluster.cpus.iew.iewBlockCycles      9575014                       # Number of cycles IEW is blocking
system.cpu_cluster.cpus.iew.iewDispLoadInsts    244335762                       # Number of dispatched load instructions
system.cpu_cluster.cpus.iew.iewDispNonSpecInsts        45292                       # Number of dispatched non-speculative instructions
system.cpu_cluster.cpus.iew.iewDispSquashedInsts            0                       # Number of squashed instructions skipped by dispatch
system.cpu_cluster.cpus.iew.iewDispStoreInsts    129772735                       # Number of dispatched store instructions
system.cpu_cluster.cpus.iew.iewDispatchedInsts    981871713                       # Number of instructions dispatched to IQ
system.cpu_cluster.cpus.iew.iewExecLoadInsts    227477118                       # Number of load instructions executed
system.cpu_cluster.cpus.iew.iewExecSquashedInsts      6819492                       # Number of squashed instructions skipped in execute
system.cpu_cluster.cpus.iew.iewExecutedInsts    929407459                       # Number of executed instructions
system.cpu_cluster.cpus.iew.iewIQFullEvents        14886                       # Number of times the IQ has become full, causing a stall
system.cpu_cluster.cpus.iew.iewIdleCycles            0                       # Number of cycles IEW is idle
system.cpu_cluster.cpus.iew.iewLSQFullEvents        39774                       # Number of times the LSQ has become full, causing a stall
system.cpu_cluster.cpus.iew.iewSquashCycles      4608879                       # Number of cycles IEW is squashing
system.cpu_cluster.cpus.iew.iewUnblockCycles        64765                       # Number of cycles IEW is unblocking
system.cpu_cluster.cpus.iew.lsq.thread0.blockedLoads            0                       # Number of blocked loads due to partial load-store forwarding
system.cpu_cluster.cpus.iew.lsq.thread0.cacheBlocked         9182                       # Number of times an access to memory failed due to the cache being blocked
system.cpu_cluster.cpus.iew.lsq.thread0.forwLoads      9637491                       # Number of loads that had data forwarded from stores
system.cpu_cluster.cpus.iew.lsq.thread0.ignoredResponses       142527                       # Number of memory responses ignored because the instruction is squashed
system.cpu_cluster.cpus.iew.lsq.thread0.invAddrLoads            0                       # Number of loads ignored due to an invalid address
system.cpu_cluster.cpus.iew.lsq.thread0.invAddrSwpfs            0                       # Number of software prefetches ignored due to an invalid address
system.cpu_cluster.cpus.iew.lsq.thread0.memOrderViolation         4658                       # Number of memory ordering violations
system.cpu_cluster.cpus.iew.lsq.thread0.rescheduledLoads       578227                       # Number of loads that were rescheduled
system.cpu_cluster.cpus.iew.lsq.thread0.squashedLoads     27388560                       # Number of loads squashed
system.cpu_cluster.cpus.iew.lsq.thread0.squashedStores      6080701                       # Number of stores squashed
system.cpu_cluster.cpus.iew.memOrderViolationEvents         4658                       # Number of memory order violations
system.cpu_cluster.cpus.iew.predictedNotTakenIncorrect      2868920                       # Number of branches that were predicted not taken incorrectly
system.cpu_cluster.cpus.iew.predictedTakenIncorrect      1865916                       # Number of branches that were predicted taken incorrectly
system.cpu_cluster.cpus.iew.wb_consumers    959706609                       # num instructions consuming a value
system.cpu_cluster.cpus.iew.wb_count        925552986                       # cumulative count of insts written-back
system.cpu_cluster.cpus.iew.wb_fanout        0.582956                       # average fanout of values written-back
system.cpu_cluster.cpus.iew.wb_producers    559467036                       # num instructions producing a value
system.cpu_cluster.cpus.iew.wb_rate          1.718072                       # insts written-back per cycle
system.cpu_cluster.cpus.iew.wb_sent         927192128                       # cumulative count of insts sent to commit
system.cpu_cluster.cpus.int_regfile_reads   1202060176                       # number of integer regfile reads
system.cpu_cluster.cpus.int_regfile_writes    784855194                       # number of integer regfile writes
system.cpu_cluster.cpus.ipc                  1.351996                       # IPC: Instructions Per Cycle
system.cpu_cluster.cpus.ipc_total            1.351996                       # IPC: Total IPC of All Threads
system.cpu_cluster.cpus.iq.FU_type_0::No_OpClass        45407      0.00%      0.00% # Type of FU issued
system.cpu_cluster.cpus.iq.FU_type_0::IntAlu    578030756     61.74%     61.75% # Type of FU issued
system.cpu_cluster.cpus.iq.FU_type_0::IntMult        19407      0.00%     61.75% # Type of FU issued
system.cpu_cluster.cpus.iq.FU_type_0::IntDiv           49      0.00%     61.75% # Type of FU issued
system.cpu_cluster.cpus.iq.FU_type_0::FloatAdd         3384      0.00%     61.75% # Type of FU issued
system.cpu_cluster.cpus.iq.FU_type_0::FloatCmp           12      0.00%     61.75% # Type of FU issued
system.cpu_cluster.cpus.iq.FU_type_0::FloatCvt         3394      0.00%     61.75% # Type of FU issued
system.cpu_cluster.cpus.iq.FU_type_0::FloatMult            0      0.00%     61.75% # Type of FU issued
system.cpu_cluster.cpus.iq.FU_type_0::FloatMultAcc            0      0.00%     61.75% # Type of FU issued
system.cpu_cluster.cpus.iq.FU_type_0::FloatDiv         3387      0.00%     61.75% # Type of FU issued
system.cpu_cluster.cpus.iq.FU_type_0::FloatMisc        13995      0.00%     61.75% # Type of FU issued
system.cpu_cluster.cpus.iq.FU_type_0::FloatSqrt            0      0.00%     61.75% # Type of FU issued
system.cpu_cluster.cpus.iq.FU_type_0::SimdAdd        12984      0.00%     61.75% # Type of FU issued
system.cpu_cluster.cpus.iq.FU_type_0::SimdAddAcc            0      0.00%     61.75% # Type of FU issued
system.cpu_cluster.cpus.iq.FU_type_0::SimdAlu        13005      0.00%     61.75% # Type of FU issued
system.cpu_cluster.cpus.iq.FU_type_0::SimdCmp        14045      0.00%     61.75% # Type of FU issued
system.cpu_cluster.cpus.iq.FU_type_0::SimdCvt            2      0.00%     61.75% # Type of FU issued
system.cpu_cluster.cpus.iq.FU_type_0::SimdMisc       206081      0.02%     61.78% # Type of FU issued
system.cpu_cluster.cpus.iq.FU_type_0::SimdMult            0      0.00%     61.78% # Type of FU issued
system.cpu_cluster.cpus.iq.FU_type_0::SimdMultAcc            0      0.00%     61.78% # Type of FU issued
system.cpu_cluster.cpus.iq.FU_type_0::SimdShift            2      0.00%     61.78% # Type of FU issued
system.cpu_cluster.cpus.iq.FU_type_0::SimdShiftAcc            0      0.00%     61.78% # Type of FU issued
system.cpu_cluster.cpus.iq.FU_type_0::SimdDiv            0      0.00%     61.78% # Type of FU issued
system.cpu_cluster.cpus.iq.FU_type_0::SimdSqrt            0      0.00%     61.78% # Type of FU issued
system.cpu_cluster.cpus.iq.FU_type_0::SimdFloatAdd            0      0.00%     61.78% # Type of FU issued
system.cpu_cluster.cpus.iq.FU_type_0::SimdFloatAlu            0      0.00%     61.78% # Type of FU issued
system.cpu_cluster.cpus.iq.FU_type_0::SimdFloatCmp            0      0.00%     61.78% # Type of FU issued
system.cpu_cluster.cpus.iq.FU_type_0::SimdFloatCvt            0      0.00%     61.78% # Type of FU issued
system.cpu_cluster.cpus.iq.FU_type_0::SimdFloatDiv            0      0.00%     61.78% # Type of FU issued
system.cpu_cluster.cpus.iq.FU_type_0::SimdFloatMisc            0      0.00%     61.78% # Type of FU issued
system.cpu_cluster.cpus.iq.FU_type_0::SimdFloatMult            0      0.00%     61.78% # Type of FU issued
system.cpu_cluster.cpus.iq.FU_type_0::SimdFloatMultAcc            0      0.00%     61.78% # Type of FU issued
system.cpu_cluster.cpus.iq.FU_type_0::SimdFloatSqrt            0      0.00%     61.78% # Type of FU issued
system.cpu_cluster.cpus.iq.FU_type_0::SimdReduceAdd            0      0.00%     61.78% # Type of FU issued
system.cpu_cluster.cpus.iq.FU_type_0::SimdReduceAlu            0      0.00%     61.78% # Type of FU issued
system.cpu_cluster.cpus.iq.FU_type_0::SimdReduceCmp            0      0.00%     61.78% # Type of FU issued
system.cpu_cluster.cpus.iq.FU_type_0::SimdFloatReduceAdd            0      0.00%     61.78% # Type of FU issued
system.cpu_cluster.cpus.iq.FU_type_0::SimdFloatReduceCmp            0      0.00%     61.78% # Type of FU issued
system.cpu_cluster.cpus.iq.FU_type_0::SimdAes            0      0.00%     61.78% # Type of FU issued
system.cpu_cluster.cpus.iq.FU_type_0::SimdAesMix            0      0.00%     61.78% # Type of FU issued
system.cpu_cluster.cpus.iq.FU_type_0::SimdSha1Hash            0      0.00%     61.78% # Type of FU issued
system.cpu_cluster.cpus.iq.FU_type_0::SimdSha1Hash2            0      0.00%     61.78% # Type of FU issued
system.cpu_cluster.cpus.iq.FU_type_0::SimdSha256Hash            0      0.00%     61.78% # Type of FU issued
system.cpu_cluster.cpus.iq.FU_type_0::SimdSha256Hash2            0      0.00%     61.78% # Type of FU issued
system.cpu_cluster.cpus.iq.FU_type_0::SimdShaSigma2            0      0.00%     61.78% # Type of FU issued
system.cpu_cluster.cpus.iq.FU_type_0::SimdShaSigma3            0      0.00%     61.78% # Type of FU issued
system.cpu_cluster.cpus.iq.FU_type_0::SimdPredAlu            0      0.00%     61.78% # Type of FU issued
system.cpu_cluster.cpus.iq.FU_type_0::MemRead    230332196     24.60%     86.38% # Type of FU issued
system.cpu_cluster.cpus.iq.FU_type_0::MemWrite    127528845     13.62%    100.00% # Type of FU issued
system.cpu_cluster.cpus.iq.FU_type_0::FloatMemRead            0      0.00%    100.00% # Type of FU issued
system.cpu_cluster.cpus.iq.FU_type_0::FloatMemWrite            0      0.00%    100.00% # Type of FU issued
system.cpu_cluster.cpus.iq.FU_type_0::IprAccess            0      0.00%    100.00% # Type of FU issued
system.cpu_cluster.cpus.iq.FU_type_0::InstPrefetch            0      0.00%    100.00% # Type of FU issued
system.cpu_cluster.cpus.iq.FU_type_0::total    936226951                       # Type of FU issued
system.cpu_cluster.cpus.iq.fp_alu_accesses            0                       # Number of floating point alu accesses
system.cpu_cluster.cpus.iq.fp_inst_queue_reads            0                       # Number of floating instruction queue reads
system.cpu_cluster.cpus.iq.fp_inst_queue_wakeup_accesses            0                       # Number of floating instruction queue wakeup accesses
system.cpu_cluster.cpus.iq.fp_inst_queue_writes            0                       # Number of floating instruction queue writes
system.cpu_cluster.cpus.iq.fu_busy_cnt      280255853                       # FU busy when requested
system.cpu_cluster.cpus.iq.fu_busy_rate      0.299346                       # FU busy rate (busy events/executed inst)
system.cpu_cluster.cpus.iq.fu_full::No_OpClass            0      0.00%      0.00% # attempts to use FU when none available
system.cpu_cluster.cpus.iq.fu_full::IntAlu    107614145     38.40%     38.40% # attempts to use FU when none available
system.cpu_cluster.cpus.iq.fu_full::IntMult          104      0.00%     38.40% # attempts to use FU when none available
system.cpu_cluster.cpus.iq.fu_full::IntDiv            3      0.00%     38.40% # attempts to use FU when none available
system.cpu_cluster.cpus.iq.fu_full::FloatAdd            1      0.00%     38.40% # attempts to use FU when none available
system.cpu_cluster.cpus.iq.fu_full::FloatCmp            0      0.00%     38.40% # attempts to use FU when none available
system.cpu_cluster.cpus.iq.fu_full::FloatCvt            0      0.00%     38.40% # attempts to use FU when none available
system.cpu_cluster.cpus.iq.fu_full::FloatMult            0      0.00%     38.40% # attempts to use FU when none available
system.cpu_cluster.cpus.iq.fu_full::FloatMultAcc            0      0.00%     38.40% # attempts to use FU when none available
system.cpu_cluster.cpus.iq.fu_full::FloatDiv            0      0.00%     38.40% # attempts to use FU when none available
system.cpu_cluster.cpus.iq.fu_full::FloatMisc            5      0.00%     38.40% # attempts to use FU when none available
system.cpu_cluster.cpus.iq.fu_full::FloatSqrt            0      0.00%     38.40% # attempts to use FU when none available
system.cpu_cluster.cpus.iq.fu_full::SimdAdd            0      0.00%     38.40% # attempts to use FU when none available
system.cpu_cluster.cpus.iq.fu_full::SimdAddAcc            0      0.00%     38.40% # attempts to use FU when none available
system.cpu_cluster.cpus.iq.fu_full::SimdAlu            0      0.00%     38.40% # attempts to use FU when none available
system.cpu_cluster.cpus.iq.fu_full::SimdCmp            0      0.00%     38.40% # attempts to use FU when none available
system.cpu_cluster.cpus.iq.fu_full::SimdCvt            0      0.00%     38.40% # attempts to use FU when none available
system.cpu_cluster.cpus.iq.fu_full::SimdMisc            0      0.00%     38.40% # attempts to use FU when none available
system.cpu_cluster.cpus.iq.fu_full::SimdMult            0      0.00%     38.40% # attempts to use FU when none available
system.cpu_cluster.cpus.iq.fu_full::SimdMultAcc            0      0.00%     38.40% # attempts to use FU when none available
system.cpu_cluster.cpus.iq.fu_full::SimdShift            0      0.00%     38.40% # attempts to use FU when none available
system.cpu_cluster.cpus.iq.fu_full::SimdShiftAcc            0      0.00%     38.40% # attempts to use FU when none available
system.cpu_cluster.cpus.iq.fu_full::SimdDiv            0      0.00%     38.40% # attempts to use FU when none available
system.cpu_cluster.cpus.iq.fu_full::SimdSqrt            0      0.00%     38.40% # attempts to use FU when none available
system.cpu_cluster.cpus.iq.fu_full::SimdFloatAdd            0      0.00%     38.40% # attempts to use FU when none available
system.cpu_cluster.cpus.iq.fu_full::SimdFloatAlu            0      0.00%     38.40% # attempts to use FU when none available
system.cpu_cluster.cpus.iq.fu_full::SimdFloatCmp            0      0.00%     38.40% # attempts to use FU when none available
system.cpu_cluster.cpus.iq.fu_full::SimdFloatCvt            0      0.00%     38.40% # attempts to use FU when none available
system.cpu_cluster.cpus.iq.fu_full::SimdFloatDiv            0      0.00%     38.40% # attempts to use FU when none available
system.cpu_cluster.cpus.iq.fu_full::SimdFloatMisc            0      0.00%     38.40% # attempts to use FU when none available
system.cpu_cluster.cpus.iq.fu_full::SimdFloatMult            0      0.00%     38.40% # attempts to use FU when none available
system.cpu_cluster.cpus.iq.fu_full::SimdFloatMultAcc            0      0.00%     38.40% # attempts to use FU when none available
system.cpu_cluster.cpus.iq.fu_full::SimdFloatSqrt            0      0.00%     38.40% # attempts to use FU when none available
system.cpu_cluster.cpus.iq.fu_full::SimdReduceAdd            0      0.00%     38.40% # attempts to use FU when none available
system.cpu_cluster.cpus.iq.fu_full::SimdReduceAlu            0      0.00%     38.40% # attempts to use FU when none available
system.cpu_cluster.cpus.iq.fu_full::SimdReduceCmp            0      0.00%     38.40% # attempts to use FU when none available
system.cpu_cluster.cpus.iq.fu_full::SimdFloatReduceAdd            0      0.00%     38.40% # attempts to use FU when none available
system.cpu_cluster.cpus.iq.fu_full::SimdFloatReduceCmp            0      0.00%     38.40% # attempts to use FU when none available
system.cpu_cluster.cpus.iq.fu_full::SimdAes            0      0.00%     38.40% # attempts to use FU when none available
system.cpu_cluster.cpus.iq.fu_full::SimdAesMix            0      0.00%     38.40% # attempts to use FU when none available
system.cpu_cluster.cpus.iq.fu_full::SimdSha1Hash            0      0.00%     38.40% # attempts to use FU when none available
system.cpu_cluster.cpus.iq.fu_full::SimdSha1Hash2            0      0.00%     38.40% # attempts to use FU when none available
system.cpu_cluster.cpus.iq.fu_full::SimdSha256Hash            0      0.00%     38.40% # attempts to use FU when none available
system.cpu_cluster.cpus.iq.fu_full::SimdSha256Hash2            0      0.00%     38.40% # attempts to use FU when none available
system.cpu_cluster.cpus.iq.fu_full::SimdShaSigma2            0      0.00%     38.40% # attempts to use FU when none available
system.cpu_cluster.cpus.iq.fu_full::SimdShaSigma3            0      0.00%     38.40% # attempts to use FU when none available
system.cpu_cluster.cpus.iq.fu_full::SimdPredAlu            0      0.00%     38.40% # attempts to use FU when none available
system.cpu_cluster.cpus.iq.fu_full::MemRead     95598719     34.11%     72.51% # attempts to use FU when none available
system.cpu_cluster.cpus.iq.fu_full::MemWrite     77042876     27.49%    100.00% # attempts to use FU when none available
system.cpu_cluster.cpus.iq.fu_full::FloatMemRead            0      0.00%    100.00% # attempts to use FU when none available
system.cpu_cluster.cpus.iq.fu_full::FloatMemWrite            0      0.00%    100.00% # attempts to use FU when none available
system.cpu_cluster.cpus.iq.fu_full::IprAccess            0      0.00%    100.00% # attempts to use FU when none available
system.cpu_cluster.cpus.iq.fu_full::InstPrefetch            0      0.00%    100.00% # attempts to use FU when none available
system.cpu_cluster.cpus.iq.int_alu_accesses   1215499491                       # Number of integer alu accesses
system.cpu_cluster.cpus.iq.int_inst_queue_reads   2693963017                       # Number of integer instruction queue reads
system.cpu_cluster.cpus.iq.int_inst_queue_wakeup_accesses    924903535                       # Number of integer instruction queue wakeup accesses
system.cpu_cluster.cpus.iq.int_inst_queue_writes   1078732015                       # Number of integer instruction queue writes
system.cpu_cluster.cpus.iq.iqInstsAdded     981809967                       # Number of instructions added to the IQ (excludes non-spec)
system.cpu_cluster.cpus.iq.iqInstsIssued    936226951                       # Number of instructions issued
system.cpu_cluster.cpus.iq.iqNonSpecInstsAdded        45293                       # Number of non-speculative instructions added to the IQ
system.cpu_cluster.cpus.iq.iqSquashedInstsExamined     97552291                       # Number of squashed instructions iterated over during squash; mainly for profiling
system.cpu_cluster.cpus.iq.iqSquashedInstsIssued      4360510                       # Number of squashed instructions issued
system.cpu_cluster.cpus.iq.iqSquashedNonSpecRemoved         4731                       # Number of squashed non-spec instructions that were removed
system.cpu_cluster.cpus.iq.iqSquashedOperandsExamined     93196746                       # Number of squashed operands that are examined and possibly removed from graph
system.cpu_cluster.cpus.iq.issued_per_cycle::samples    538498193                       # Number of insts issued each cycle
system.cpu_cluster.cpus.iq.issued_per_cycle::mean     1.738589                       # Number of insts issued each cycle
system.cpu_cluster.cpus.iq.issued_per_cycle::stdev     1.108947                       # Number of insts issued each cycle
system.cpu_cluster.cpus.iq.issued_per_cycle::underflows            0      0.00%      0.00% # Number of insts issued each cycle
system.cpu_cluster.cpus.iq.issued_per_cycle::0     92732879     17.22%     17.22% # Number of insts issued each cycle
system.cpu_cluster.cpus.iq.issued_per_cycle::1    122698343     22.79%     40.01% # Number of insts issued each cycle
system.cpu_cluster.cpus.iq.issued_per_cycle::2    174668147     32.44%     72.44% # Number of insts issued each cycle
system.cpu_cluster.cpus.iq.issued_per_cycle::3    129406652     24.03%     96.47% # Number of insts issued each cycle
system.cpu_cluster.cpus.iq.issued_per_cycle::4     18988502      3.53%    100.00% # Number of insts issued each cycle
system.cpu_cluster.cpus.iq.issued_per_cycle::5         3670      0.00%    100.00% # Number of insts issued each cycle
system.cpu_cluster.cpus.iq.issued_per_cycle::6            0      0.00%    100.00% # Number of insts issued each cycle
system.cpu_cluster.cpus.iq.issued_per_cycle::7            0      0.00%    100.00% # Number of insts issued each cycle
system.cpu_cluster.cpus.iq.issued_per_cycle::8            0      0.00%    100.00% # Number of insts issued each cycle
system.cpu_cluster.cpus.iq.issued_per_cycle::overflows            0      0.00%    100.00% # Number of insts issued each cycle
system.cpu_cluster.cpus.iq.issued_per_cycle::min_value            0                       # Number of insts issued each cycle
system.cpu_cluster.cpus.iq.issued_per_cycle::max_value            5                       # Number of insts issued each cycle
system.cpu_cluster.cpus.iq.issued_per_cycle::total    538498193                       # Number of insts issued each cycle
system.cpu_cluster.cpus.iq.rate              1.737886                       # Inst issue rate
system.cpu_cluster.cpus.iq.vec_alu_accesses       937906                       # Number of vector alu accesses
system.cpu_cluster.cpus.iq.vec_inst_queue_reads      1605441                       # Number of vector instruction queue reads
system.cpu_cluster.cpus.iq.vec_inst_queue_wakeup_accesses       649451                       # Number of vector instruction queue wakeup accesses
system.cpu_cluster.cpus.iq.vec_inst_queue_writes       680172                       # Number of vector instruction queue writes
system.cpu_cluster.cpus.itb.accesses                0                       # DTB accesses
system.cpu_cluster.cpus.itb.align_faults            0                       # Number of TLB faults due to alignment restrictions
system.cpu_cluster.cpus.itb.domain_faults            0                       # Number of TLB faults due to domain restrictions
system.cpu_cluster.cpus.itb.flush_entries            0                       # Number of entries that have been flushed from TLB
system.cpu_cluster.cpus.itb.flush_tlb               0                       # Number of times complete TLB was flushed
system.cpu_cluster.cpus.itb.flush_tlb_asid            0                       # Number of times TLB was flushed by ASID
system.cpu_cluster.cpus.itb.flush_tlb_mva            0                       # Number of times TLB was flushed by MVA
system.cpu_cluster.cpus.itb.flush_tlb_mva_asid            0                       # Number of times TLB was flushed by MVA & ASID
system.cpu_cluster.cpus.itb.hits                    0                       # DTB hits
system.cpu_cluster.cpus.itb.inst_accesses            0                       # ITB inst accesses
system.cpu_cluster.cpus.itb.inst_hits               0                       # ITB inst hits
system.cpu_cluster.cpus.itb.inst_misses             0                       # ITB inst misses
system.cpu_cluster.cpus.itb.misses                  0                       # DTB misses
system.cpu_cluster.cpus.itb.perms_faults            0                       # Number of TLB faults due to permissions restrictions
system.cpu_cluster.cpus.itb.prefetch_faults            0                       # Number of TLB faults due to prefetch
system.cpu_cluster.cpus.itb.read_accesses            0                       # DTB read accesses
system.cpu_cluster.cpus.itb.read_hits               0                       # DTB read hits
system.cpu_cluster.cpus.itb.read_misses             0                       # DTB read misses
system.cpu_cluster.cpus.itb.stage2_mmu.stage2_tlb.accesses            0                       # DTB accesses
system.cpu_cluster.cpus.itb.stage2_mmu.stage2_tlb.align_faults            0                       # Number of TLB faults due to alignment restrictions
system.cpu_cluster.cpus.itb.stage2_mmu.stage2_tlb.domain_faults            0                       # Number of TLB faults due to domain restrictions
system.cpu_cluster.cpus.itb.stage2_mmu.stage2_tlb.flush_entries            0                       # Number of entries that have been flushed from TLB
system.cpu_cluster.cpus.itb.stage2_mmu.stage2_tlb.flush_tlb            0                       # Number of times complete TLB was flushed
system.cpu_cluster.cpus.itb.stage2_mmu.stage2_tlb.flush_tlb_asid            0                       # Number of times TLB was flushed by ASID
system.cpu_cluster.cpus.itb.stage2_mmu.stage2_tlb.flush_tlb_mva            0                       # Number of times TLB was flushed by MVA
system.cpu_cluster.cpus.itb.stage2_mmu.stage2_tlb.flush_tlb_mva_asid            0                       # Number of times TLB was flushed by MVA & ASID
system.cpu_cluster.cpus.itb.stage2_mmu.stage2_tlb.hits            0                       # DTB hits
system.cpu_cluster.cpus.itb.stage2_mmu.stage2_tlb.inst_accesses            0                       # ITB inst accesses
system.cpu_cluster.cpus.itb.stage2_mmu.stage2_tlb.inst_hits            0                       # ITB inst hits
system.cpu_cluster.cpus.itb.stage2_mmu.stage2_tlb.inst_misses            0                       # ITB inst misses
system.cpu_cluster.cpus.itb.stage2_mmu.stage2_tlb.misses            0                       # DTB misses
system.cpu_cluster.cpus.itb.stage2_mmu.stage2_tlb.perms_faults            0                       # Number of TLB faults due to permissions restrictions
system.cpu_cluster.cpus.itb.stage2_mmu.stage2_tlb.prefetch_faults            0                       # Number of TLB faults due to prefetch
system.cpu_cluster.cpus.itb.stage2_mmu.stage2_tlb.read_accesses            0                       # DTB read accesses
system.cpu_cluster.cpus.itb.stage2_mmu.stage2_tlb.read_hits            0                       # DTB read hits
system.cpu_cluster.cpus.itb.stage2_mmu.stage2_tlb.read_misses            0                       # DTB read misses
system.cpu_cluster.cpus.itb.stage2_mmu.stage2_tlb.walker.walkRequestOrigin_Requested::Data            0                       # Table walker requests started/completed, data/inst
system.cpu_cluster.cpus.itb.stage2_mmu.stage2_tlb.walker.walkRequestOrigin_Requested::Inst            0                       # Table walker requests started/completed, data/inst
system.cpu_cluster.cpus.itb.stage2_mmu.stage2_tlb.walker.walkRequestOrigin_Requested::total            0                       # Table walker requests started/completed, data/inst
system.cpu_cluster.cpus.itb.stage2_mmu.stage2_tlb.walker.walkRequestOrigin_Completed::Data            0                       # Table walker requests started/completed, data/inst
system.cpu_cluster.cpus.itb.stage2_mmu.stage2_tlb.walker.walkRequestOrigin_Completed::Inst            0                       # Table walker requests started/completed, data/inst
system.cpu_cluster.cpus.itb.stage2_mmu.stage2_tlb.walker.walkRequestOrigin_Completed::total            0                       # Table walker requests started/completed, data/inst
system.cpu_cluster.cpus.itb.stage2_mmu.stage2_tlb.walker.walkRequestOrigin::total            0                       # Table walker requests started/completed, data/inst
system.cpu_cluster.cpus.itb.stage2_mmu.stage2_tlb.walker.walks            0                       # Table walker walks requested
system.cpu_cluster.cpus.itb.stage2_mmu.stage2_tlb.write_accesses            0                       # DTB write accesses
system.cpu_cluster.cpus.itb.stage2_mmu.stage2_tlb.write_hits            0                       # DTB write hits
system.cpu_cluster.cpus.itb.stage2_mmu.stage2_tlb.write_misses            0                       # DTB write misses
system.cpu_cluster.cpus.itb.walker.walkRequestOrigin_Requested::Data            0                       # Table walker requests started/completed, data/inst
system.cpu_cluster.cpus.itb.walker.walkRequestOrigin_Requested::Inst            0                       # Table walker requests started/completed, data/inst
system.cpu_cluster.cpus.itb.walker.walkRequestOrigin_Requested::total            0                       # Table walker requests started/completed, data/inst
system.cpu_cluster.cpus.itb.walker.walkRequestOrigin_Completed::Data            0                       # Table walker requests started/completed, data/inst
system.cpu_cluster.cpus.itb.walker.walkRequestOrigin_Completed::Inst            0                       # Table walker requests started/completed, data/inst
system.cpu_cluster.cpus.itb.walker.walkRequestOrigin_Completed::total            0                       # Table walker requests started/completed, data/inst
system.cpu_cluster.cpus.itb.walker.walkRequestOrigin::total            0                       # Table walker requests started/completed, data/inst
system.cpu_cluster.cpus.itb.walker.walks            0                       # Table walker walks requested
system.cpu_cluster.cpus.itb.write_accesses            0                       # DTB write accesses
system.cpu_cluster.cpus.itb.write_hits              0                       # DTB write hits
system.cpu_cluster.cpus.itb.write_misses            0                       # DTB write misses
system.cpu_cluster.cpus.memDep0.conflictingLoads      8299038                       # Number of conflicting loads.
system.cpu_cluster.cpus.memDep0.conflictingStores      2886890                       # Number of conflicting stores.
system.cpu_cluster.cpus.memDep0.insertedLoads    244335762                       # Number of loads inserted to the mem dependence unit.
system.cpu_cluster.cpus.memDep0.insertedStores    129772735                       # Number of stores inserted to the mem dependence unit.
system.cpu_cluster.cpus.misc_regfile_reads    924935683                       # number of misc regfile reads
system.cpu_cluster.cpus.misc_regfile_writes        10737                       # number of misc regfile writes
system.cpu_cluster.cpus.numCycles           538716062                       # number of cpu cycles simulated
system.cpu_cluster.cpus.numWorkItemsCompleted            0                       # number of work items this cpu completed
system.cpu_cluster.cpus.numWorkItemsStarted            0                       # number of work items this cpu started
system.cpu_cluster.cpus.rename.BlockCycles     29621870                       # Number of cycles rename is blocking
system.cpu_cluster.cpus.rename.CommittedMaps   1027206206                       # Number of HB maps that are committed
system.cpu_cluster.cpus.rename.FullRegisterEvents         6967                       # Number of times there has been no free registers
system.cpu_cluster.cpus.rename.IQFullEvents      1139245                       # Number of times rename has blocked due to IQ full
system.cpu_cluster.cpus.rename.IdleCycles     88848259                       # Number of cycles rename is idle
system.cpu_cluster.cpus.rename.LQFullEvents       346882                       # Number of times rename has blocked due to LQ full
system.cpu_cluster.cpus.rename.ROBFullEvents     39874490                       # Number of times rename has blocked due to ROB full
system.cpu_cluster.cpus.rename.RenameLookups   1597033989                       # Number of register rename lookups that rename has made
system.cpu_cluster.cpus.rename.RenamedInsts    990518585                       # Number of instructions processed by rename
system.cpu_cluster.cpus.rename.RenamedOperands   1160633261                       # Number of destination operands rename has renamed
system.cpu_cluster.cpus.rename.RunCycles    344196125                       # Number of cycles rename is running
system.cpu_cluster.cpus.rename.SQFullEvents     12106277                       # Number of times rename has blocked due to SQ full
system.cpu_cluster.cpus.rename.SquashCycles      4608879                       # Number of cycles rename is squashing
system.cpu_cluster.cpus.rename.SquashedInsts      8556588                       # Number of squashed instructions processed by rename
system.cpu_cluster.cpus.rename.UnblockCycles     70717868                       # Number of cycles rename is unblocking
system.cpu_cluster.cpus.rename.UndoneMaps    133427055                       # Number of HB maps that are undone due to squashing
system.cpu_cluster.cpus.rename.int_rename_lookups   1279685423                       # Number of integer rename lookups
system.cpu_cluster.cpus.rename.serializeStallCycles       505192                       # count of cycles rename stalled for serializing inst
system.cpu_cluster.cpus.rename.serializingInsts        32435                       # count of serializing insts renamed
system.cpu_cluster.cpus.rename.skidInsts    110713836                       # count of insts added to the skid buffer
system.cpu_cluster.cpus.rename.tempSerializingInsts         7014                       # count of temporary serializing insts renamed
system.cpu_cluster.cpus.rename.vec_rename_lookups       498880                       # Number of vector rename lookups
system.cpu_cluster.cpus.rob.rob_reads      1473713364                       # The number of ROB reads
system.cpu_cluster.cpus.rob.rob_writes     1961772430                       # The number of ROB writes
system.cpu_cluster.cpus.timesIdled               1524                       # Number of times that the entire CPU went into an idle state and unscheduled itself
system.cpu_cluster.cpus.vec_regfile_reads       487849                       # number of vector regfile reads
system.cpu_cluster.cpus.vec_regfile_writes       290949                       # number of vector regfile writes
system.cpu_cluster.cpus.workload.numSyscalls         6829                       # Number of system calls
system.cpu_cluster.l2.prefetcher.num_hwpf_issued        40738                       # number of hwpf issued
system.cpu_cluster.l2.prefetcher.pfBufferHit          126                       # number of redundant prefetches already in prefetch queue
system.cpu_cluster.l2.prefetcher.pfIdentified        40882                       # number of prefetch candidates identified
system.cpu_cluster.l2.prefetcher.pfInCache            0                       # number of redundant prefetches already in cache/mshr dropped
system.cpu_cluster.l2.prefetcher.pfRemovedFull            0                       # number of prefetches dropped due to prefetch queue size
system.cpu_cluster.l2.prefetcher.pfSpanPage         5198                       # number of prefetches that crossed the page
system.cpu_cluster.toL2Bus.snoop_filter.hit_multi_requests            1                       # Number of requests hitting in the snoop filter with multiple (>1) holders of the requested data.
system.cpu_cluster.toL2Bus.snoop_filter.hit_multi_snoops            0                       # Number of snoops hitting in the snoop filter with multiple (>1) holders of the requested data.
system.cpu_cluster.toL2Bus.snoop_filter.hit_single_requests       315690                       # Number of requests hitting in the snoop filter with a single holder of the requested data.
system.cpu_cluster.toL2Bus.snoop_filter.hit_single_snoops         2235                       # Number of snoops hitting in the snoop filter with a single holder of the requested data.
system.cpu_cluster.toL2Bus.snoop_filter.tot_requests       632402                       # Total number of requests made to the snoop filter.
system.cpu_cluster.toL2Bus.snoop_filter.tot_snoops         2235                       # Total number of snoops made to the snoop filter.
system.membus.snoop_filter.hit_multi_requests            0                       # Number of requests hitting in the snoop filter with multiple (>1) holders of the requested data.
system.membus.snoop_filter.hit_multi_snoops            0                       # Number of snoops hitting in the snoop filter with multiple (>1) holders of the requested data.
system.membus.snoop_filter.hit_single_requests            2                       # Number of requests hitting in the snoop filter with a single holder of the requested data.
system.membus.snoop_filter.hit_single_snoops            0                       # Number of snoops hitting in the snoop filter with a single holder of the requested data.
system.membus.snoop_filter.tot_requests          7514                       # Total number of requests made to the snoop filter.
system.membus.snoop_filter.tot_snoops               0                       # Total number of snoops made to the snoop filter.
system.membus.pwrStateResidencyTicks::UNDEFINED 192321633777                       # Cumulative time (in ticks) in various power states
system.membus.trans_dist::ReadResp               5623                       # Transaction distribution
system.membus.trans_dist::ReadExReq              1812                       # Transaction distribution
system.membus.trans_dist::ReadExResp             1812                       # Transaction distribution
system.membus.trans_dist::ReadCleanReq           5623                       # Transaction distribution
system.membus.trans_dist::InvalidateReq            79                       # Transaction distribution
system.membus.pkt_count_system.cpu_cluster.l2.mem_side::system.mem_ctrls.port        14949                       # Packet count per connected master and slave (bytes)
system.membus.pkt_count_system.cpu_cluster.l2.mem_side::total        14949                       # Packet count per connected master and slave (bytes)
system.membus.pkt_count::total                  14949                       # Packet count per connected master and slave (bytes)
system.membus.pkt_size_system.cpu_cluster.l2.mem_side::system.mem_ctrls.port       475840                       # Cumulative packet size per connected master and slave (bytes)
system.membus.pkt_size_system.cpu_cluster.l2.mem_side::total       475840                       # Cumulative packet size per connected master and slave (bytes)
system.membus.pkt_size::total                  475840                       # Cumulative packet size per connected master and slave (bytes)
system.membus.snoops                                0                       # Total snoops (count)
system.membus.snoopTraffic                          0                       # Total snoop traffic (bytes)
system.membus.snoop_fanout::samples              7514                       # Request fanout histogram
system.membus.snoop_fanout::mean                    0                       # Request fanout histogram
system.membus.snoop_fanout::stdev                   0                       # Request fanout histogram
system.membus.snoop_fanout::underflows              0      0.00%      0.00% # Request fanout histogram
system.membus.snoop_fanout::0                    7514    100.00%    100.00% # Request fanout histogram
system.membus.snoop_fanout::1                       0      0.00%    100.00% # Request fanout histogram
system.membus.snoop_fanout::overflows               0      0.00%    100.00% # Request fanout histogram
system.membus.snoop_fanout::min_value               0                       # Request fanout histogram
system.membus.snoop_fanout::max_value               0                       # Request fanout histogram
system.membus.snoop_fanout::total                7514                       # Request fanout histogram
system.membus.reqLayer0.occupancy            10302966                       # Layer occupancy (ticks)
system.membus.reqLayer0.utilization               0.0                       # Layer utilization (%)
system.membus.badaddr_responder.pwrStateResidencyTicks::UNDEFINED 192321633777                       # Cumulative time (in ticks) in various power states
system.membus.respLayer1.occupancy           41804641                       # Layer occupancy (ticks)
system.membus.respLayer1.utilization              0.0                       # Layer utilization (%)
system.voltage_domain.voltage                       1                       # Voltage in Volts
system.clk_domain.clock                          1000                       # Clock period in ticks
system.cpu_cluster.toL2Bus.pwrStateResidencyTicks::UNDEFINED 192321633777                       # Cumulative time (in ticks) in various power states
system.cpu_cluster.toL2Bus.trans_dist::ReadResp       283993                       # Transaction distribution
system.cpu_cluster.toL2Bus.trans_dist::WritebackDirty       267275                       # Transaction distribution
system.cpu_cluster.toL2Bus.trans_dist::WritebackClean        48414                       # Transaction distribution
system.cpu_cluster.toL2Bus.trans_dist::HardPFReq         7278                       # Transaction distribution
system.cpu_cluster.toL2Bus.trans_dist::ReadExReq        30631                       # Transaction distribution
system.cpu_cluster.toL2Bus.trans_dist::ReadExResp        30631                       # Transaction distribution
system.cpu_cluster.toL2Bus.trans_dist::ReadCleanReq        45799                       # Transaction distribution
system.cpu_cluster.toL2Bus.trans_dist::ReadSharedReq       238195                       # Transaction distribution
system.cpu_cluster.toL2Bus.trans_dist::InvalidateReq         2088                       # Transaction distribution
system.cpu_cluster.toL2Bus.trans_dist::InvalidateResp         2088                       # Transaction distribution
system.cpu_cluster.toL2Bus.pkt_count_system.cpu_cluster.cpus.icache.mem_side::system.cpu_cluster.l2.cpu_side       136884                       # Packet count per connected master and slave (bytes)
system.cpu_cluster.toL2Bus.pkt_count_system.cpu_cluster.cpus.dcache.mem_side::system.cpu_cluster.l2.cpu_side       812230                       # Packet count per connected master and slave (bytes)
system.cpu_cluster.toL2Bus.pkt_count::total       949114                       # Packet count per connected master and slave (bytes)
system.cpu_cluster.toL2Bus.pkt_size_system.cpu_cluster.cpus.icache.mem_side::system.cpu_cluster.l2.cpu_side      5829440                       # Cumulative packet size per connected master and slave (bytes)
system.cpu_cluster.toL2Bus.pkt_size_system.cpu_cluster.cpus.dcache.mem_side::system.cpu_cluster.l2.cpu_side     34510592                       # Cumulative packet size per connected master and slave (bytes)
system.cpu_cluster.toL2Bus.pkt_size::total     40340032                       # Cumulative packet size per connected master and slave (bytes)
system.cpu_cluster.toL2Bus.snoops                7278                       # Total snoops (count)
system.cpu_cluster.toL2Bus.snoopTraffic             0                       # Total snoop traffic (bytes)
system.cpu_cluster.toL2Bus.snoop_fanout::samples       323991                       # Request fanout histogram
system.cpu_cluster.toL2Bus.snoop_fanout::mean     0.006905                       # Request fanout histogram
system.cpu_cluster.toL2Bus.snoop_fanout::stdev     0.082806                       # Request fanout histogram
system.cpu_cluster.toL2Bus.snoop_fanout::underflows            0      0.00%      0.00% # Request fanout histogram
system.cpu_cluster.toL2Bus.snoop_fanout::0       321754     99.31%     99.31% # Request fanout histogram
system.cpu_cluster.toL2Bus.snoop_fanout::1         2237      0.69%    100.00% # Request fanout histogram
system.cpu_cluster.toL2Bus.snoop_fanout::2            0      0.00%    100.00% # Request fanout histogram
system.cpu_cluster.toL2Bus.snoop_fanout::overflows            0      0.00%    100.00% # Request fanout histogram
system.cpu_cluster.toL2Bus.snoop_fanout::min_value            0                       # Request fanout histogram
system.cpu_cluster.toL2Bus.snoop_fanout::max_value            1                       # Request fanout histogram
system.cpu_cluster.toL2Bus.snoop_fanout::total       323991                       # Request fanout histogram
system.cpu_cluster.toL2Bus.reqLayer0.occupancy    338468487                       # Layer occupancy (ticks)
system.cpu_cluster.toL2Bus.reqLayer0.utilization          0.2                       # Layer utilization (%)
system.cpu_cluster.toL2Bus.respLayer1.occupancy    192687180                       # Layer occupancy (ticks)
system.cpu_cluster.toL2Bus.respLayer1.utilization          0.1                       # Layer utilization (%)
system.cpu_cluster.toL2Bus.respLayer0.occupancy     32700484                       # Layer occupancy (ticks)
system.cpu_cluster.toL2Bus.respLayer0.utilization          0.0                       # Layer utilization (%)
system.cpu_cluster.voltage_domain.voltage            1                       # Voltage in Volts
system.cpu_cluster.l2.pwrStateResidencyTicks::UNDEFINED 192321633777                       # Cumulative time (in ticks) in various power states
system.cpu_cluster.l2.demand_hits::.cpu_cluster.cpus.inst        44251                       # number of demand (read+write) hits
system.cpu_cluster.l2.demand_hits::.cpu_cluster.cpus.data       266421                       # number of demand (read+write) hits
system.cpu_cluster.l2.demand_hits::total       310672                       # number of demand (read+write) hits
system.cpu_cluster.l2.overall_hits::.cpu_cluster.cpus.inst        44251                       # number of overall hits
system.cpu_cluster.l2.overall_hits::.cpu_cluster.cpus.data       266421                       # number of overall hits
system.cpu_cluster.l2.overall_hits::total       310672                       # number of overall hits
system.cpu_cluster.l2.demand_misses::.cpu_cluster.cpus.inst         1548                       # number of demand (read+write) misses
system.cpu_cluster.l2.demand_misses::.cpu_cluster.cpus.data         2405                       # number of demand (read+write) misses
system.cpu_cluster.l2.demand_misses::total         3953                       # number of demand (read+write) misses
system.cpu_cluster.l2.overall_misses::.cpu_cluster.cpus.inst         1548                       # number of overall misses
system.cpu_cluster.l2.overall_misses::.cpu_cluster.cpus.data         2405                       # number of overall misses
system.cpu_cluster.l2.overall_misses::total         3953                       # number of overall misses
system.cpu_cluster.l2.demand_miss_latency::.cpu_cluster.cpus.inst    127236228                       # number of demand (read+write) miss cycles
system.cpu_cluster.l2.demand_miss_latency::.cpu_cluster.cpus.data    189490245                       # number of demand (read+write) miss cycles
system.cpu_cluster.l2.demand_miss_latency::total    316726473                       # number of demand (read+write) miss cycles
system.cpu_cluster.l2.overall_miss_latency::.cpu_cluster.cpus.inst    127236228                       # number of overall miss cycles
system.cpu_cluster.l2.overall_miss_latency::.cpu_cluster.cpus.data    189490245                       # number of overall miss cycles
system.cpu_cluster.l2.overall_miss_latency::total    316726473                       # number of overall miss cycles
system.cpu_cluster.l2.demand_accesses::.cpu_cluster.cpus.inst        45799                       # number of demand (read+write) accesses
system.cpu_cluster.l2.demand_accesses::.cpu_cluster.cpus.data       268826                       # number of demand (read+write) accesses
system.cpu_cluster.l2.demand_accesses::total       314625                       # number of demand (read+write) accesses
system.cpu_cluster.l2.overall_accesses::.cpu_cluster.cpus.inst        45799                       # number of overall (read+write) accesses
system.cpu_cluster.l2.overall_accesses::.cpu_cluster.cpus.data       268826                       # number of overall (read+write) accesses
system.cpu_cluster.l2.overall_accesses::total       314625                       # number of overall (read+write) accesses
system.cpu_cluster.l2.demand_miss_rate::.cpu_cluster.cpus.inst     0.033800                       # miss rate for demand accesses
system.cpu_cluster.l2.demand_miss_rate::.cpu_cluster.cpus.data     0.008946                       # miss rate for demand accesses
system.cpu_cluster.l2.demand_miss_rate::total     0.012564                       # miss rate for demand accesses
system.cpu_cluster.l2.overall_miss_rate::.cpu_cluster.cpus.inst     0.033800                       # miss rate for overall accesses
system.cpu_cluster.l2.overall_miss_rate::.cpu_cluster.cpus.data     0.008946                       # miss rate for overall accesses
system.cpu_cluster.l2.overall_miss_rate::total     0.012564                       # miss rate for overall accesses
system.cpu_cluster.l2.demand_avg_miss_latency::.cpu_cluster.cpus.inst 82193.945736                       # average overall miss latency
system.cpu_cluster.l2.demand_avg_miss_latency::.cpu_cluster.cpus.data 78790.122661                       # average overall miss latency
system.cpu_cluster.l2.demand_avg_miss_latency::total 80123.064255                       # average overall miss latency
system.cpu_cluster.l2.overall_avg_miss_latency::.cpu_cluster.cpus.inst 82193.945736                       # average overall miss latency
system.cpu_cluster.l2.overall_avg_miss_latency::.cpu_cluster.cpus.data 78790.122661                       # average overall miss latency
system.cpu_cluster.l2.overall_avg_miss_latency::total 80123.064255                       # average overall miss latency
system.cpu_cluster.l2.blocked_cycles::no_mshrs            0                       # number of cycles access was blocked
system.cpu_cluster.l2.blocked_cycles::no_targets            0                       # number of cycles access was blocked
system.cpu_cluster.l2.blocked::no_mshrs             0                       # number of cycles access was blocked
system.cpu_cluster.l2.blocked::no_targets            0                       # number of cycles access was blocked
system.cpu_cluster.l2.avg_blocked_cycles::no_mshrs          nan                       # average number of cycles each access was blocked
system.cpu_cluster.l2.avg_blocked_cycles::no_targets          nan                       # average number of cycles each access was blocked
system.cpu_cluster.l2.unused_prefetches          3413                       # number of HardPF blocks evicted w/o reference
system.cpu_cluster.l2.demand_mshr_hits::.cpu_cluster.cpus.data          306                       # number of demand (read+write) MSHR hits
system.cpu_cluster.l2.demand_mshr_hits::total          306                       # number of demand (read+write) MSHR hits
system.cpu_cluster.l2.overall_mshr_hits::.cpu_cluster.cpus.data          306                       # number of overall MSHR hits
system.cpu_cluster.l2.overall_mshr_hits::total          306                       # number of overall MSHR hits
system.cpu_cluster.l2.demand_mshr_misses::.cpu_cluster.cpus.inst         1548                       # number of demand (read+write) MSHR misses
system.cpu_cluster.l2.demand_mshr_misses::.cpu_cluster.cpus.data         2099                       # number of demand (read+write) MSHR misses
system.cpu_cluster.l2.demand_mshr_misses::total         3647                       # number of demand (read+write) MSHR misses
system.cpu_cluster.l2.overall_mshr_misses::.cpu_cluster.cpus.inst         1548                       # number of overall MSHR misses
system.cpu_cluster.l2.overall_mshr_misses::.cpu_cluster.cpus.data         2099                       # number of overall MSHR misses
system.cpu_cluster.l2.overall_mshr_misses::.cpu_cluster.l2.prefetcher         6024                       # number of overall MSHR misses
system.cpu_cluster.l2.overall_mshr_misses::total         9671                       # number of overall MSHR misses
system.cpu_cluster.l2.demand_mshr_miss_latency::.cpu_cluster.cpus.inst    120325932                       # number of demand (read+write) MSHR miss cycles
system.cpu_cluster.l2.demand_mshr_miss_latency::.cpu_cluster.cpus.data    173736692                       # number of demand (read+write) MSHR miss cycles
system.cpu_cluster.l2.demand_mshr_miss_latency::total    294062624                       # number of demand (read+write) MSHR miss cycles
system.cpu_cluster.l2.overall_mshr_miss_latency::.cpu_cluster.cpus.inst    120325932                       # number of overall MSHR miss cycles
system.cpu_cluster.l2.overall_mshr_miss_latency::.cpu_cluster.cpus.data    173736692                       # number of overall MSHR miss cycles
system.cpu_cluster.l2.overall_mshr_miss_latency::.cpu_cluster.l2.prefetcher    329990583                       # number of overall MSHR miss cycles
system.cpu_cluster.l2.overall_mshr_miss_latency::total    624053207                       # number of overall MSHR miss cycles
system.cpu_cluster.l2.demand_mshr_miss_rate::.cpu_cluster.cpus.inst     0.033800                       # mshr miss rate for demand accesses
[...]
system.mem_ctrls.rdQLenPdf::33                      0                       # What read queue length does an incoming req see
system.mem_ctrls.rdQLenPdf::34                      0                       # What read queue length does an incoming req see
system.mem_ctrls.rdQLenPdf::35                      0                       # What read queue length does an incoming req see
system.mem_ctrls.rdQLenPdf::36                      0                       # What read queue length does an incoming req see
system.mem_ctrls.rdQLenPdf::37                      0                       # What read queue length does an incoming req see
system.mem_ctrls.rdQLenPdf::38                      0                       # What read queue length does an incoming req see
system.mem_ctrls.rdQLenPdf::39                      0                       # What read queue length does an incoming req see
system.mem_ctrls.rdQLenPdf::40                      0                       # What read queue length does an incoming req see
system.mem_ctrls.rdQLenPdf::41                      0                       # What read queue length does an incoming req see
system.mem_ctrls.rdQLenPdf::42                      0                       # What read queue length does an incoming req see
system.mem_ctrls.rdQLenPdf::43                      0                       # What read queue length does an incoming req see
system.mem_ctrls.rdQLenPdf::44                      0                       # What read queue length does an incoming req see
system.mem_ctrls.rdQLenPdf::45                      0                       # What read queue length does an incoming req see
system.mem_ctrls.rdQLenPdf::46                      0                       # What read queue length does an incoming req see
system.mem_ctrls.rdQLenPdf::47                      0                       # What read queue length does an incoming req see
system.mem_ctrls.rdQLenPdf::48                      0                       # What read queue length does an incoming req see
system.mem_ctrls.rdQLenPdf::49                      0                       # What read queue length does an incoming req see
system.mem_ctrls.rdQLenPdf::50                      0                       # What read queue length does an incoming req see
system.mem_ctrls.rdQLenPdf::51                      0                       # What read queue length does an incoming req see
system.mem_ctrls.rdQLenPdf::52                      0                       # What read queue length does an incoming req see
system.mem_ctrls.rdQLenPdf::53                      0                       # What read queue length does an incoming req see
system.mem_ctrls.rdQLenPdf::54                      0                       # What read queue length does an incoming req see
system.mem_ctrls.rdQLenPdf::55                      0                       # What read queue length does an incoming req see
system.mem_ctrls.rdQLenPdf::56                      0                       # What read queue length does an incoming req see
system.mem_ctrls.rdQLenPdf::57                      0                       # What read queue length does an incoming req see
system.mem_ctrls.rdQLenPdf::58                      0                       # What read queue length does an incoming req see
system.mem_ctrls.rdQLenPdf::59                      0                       # What read queue length does an incoming req see
system.mem_ctrls.rdQLenPdf::60                      0                       # What read queue length does an incoming req see
system.mem_ctrls.rdQLenPdf::61                      0                       # What read queue length does an incoming req see
system.mem_ctrls.rdQLenPdf::62                      0                       # What read queue length does an incoming req see
system.mem_ctrls.rdQLenPdf::63                      0                       # What read queue length does an incoming req see
system.mem_ctrls.wrQLenPdf::0                       0                       # What write queue length does an incoming req see
system.mem_ctrls.wrQLenPdf::1                       0                       # What write queue length does an incoming req see
system.mem_ctrls.wrQLenPdf::2                       0                       # What write queue length does an incoming req see
system.mem_ctrls.wrQLenPdf::3                       0                       # What write queue length does an incoming req see
system.mem_ctrls.wrQLenPdf::4                       0                       # What write queue length does an incoming req see
system.mem_ctrls.wrQLenPdf::5                       0                       # What write queue length does an incoming req see
system.mem_ctrls.wrQLenPdf::6                       0                       # What write queue length does an incoming req see
system.mem_ctrls.wrQLenPdf::7                       0                       # What write queue length does an incoming req see
system.mem_ctrls.wrQLenPdf::8                       0                       # What write queue length does an incoming req see
system.mem_ctrls.wrQLenPdf::9                       0                       # What write queue length does an incoming req see
system.mem_ctrls.wrQLenPdf::10                      0                       # What write queue length does an incoming req see
system.mem_ctrls.wrQLenPdf::11                      0                       # What write queue length does an incoming req see
system.mem_ctrls.wrQLenPdf::12                      0                       # What write queue length does an incoming req see
system.mem_ctrls.wrQLenPdf::13                      0                       # What write queue length does an incoming req see
system.mem_ctrls.wrQLenPdf::14                      0                       # What write queue length does an incoming req see
system.mem_ctrls.wrQLenPdf::15                      0                       # What write queue length does an incoming req see
system.mem_ctrls.wrQLenPdf::16                      0                       # What write queue length does an incoming req see
system.mem_ctrls.wrQLenPdf::17                      0                       # What write queue length does an incoming req see
system.mem_ctrls.wrQLenPdf::18                      0                       # What write queue length does an incoming req see
system.mem_ctrls.wrQLenPdf::19                      0                       # What write queue length does an incoming req see
system.mem_ctrls.wrQLenPdf::20                      0                       # What write queue length does an incoming req see
system.mem_ctrls.wrQLenPdf::21                      0                       # What write queue length does an incoming req see
system.mem_ctrls.wrQLenPdf::22                      0                       # What write queue length does an incoming req see
system.mem_ctrls.wrQLenPdf::23                      0                       # What write queue length does an incoming req see
system.mem_ctrls.wrQLenPdf::24                      0                       # What write queue length does an incoming req see
system.mem_ctrls.wrQLenPdf::25                      0                       # What write queue length does an incoming req see
system.mem_ctrls.wrQLenPdf::26                      0                       # What write queue length does an incoming req see
system.mem_ctrls.wrQLenPdf::27                      0                       # What write queue length does an incoming req see
system.mem_ctrls.wrQLenPdf::28                      0                       # What write queue length does an incoming req see
system.mem_ctrls.wrQLenPdf::29                      0                       # What write queue length does an incoming req see
system.mem_ctrls.wrQLenPdf::30                      0                       # What write queue length does an incoming req see
system.mem_ctrls.wrQLenPdf::31                      0                       # What write queue length does an incoming req see
system.mem_ctrls.wrQLenPdf::32                      0                       # What write queue length does an incoming req see
system.mem_ctrls.wrQLenPdf::33                      0                       # What write queue length does an incoming req see
system.mem_ctrls.wrQLenPdf::34                      0                       # What write queue length does an incoming req see
system.mem_ctrls.wrQLenPdf::35                      0                       # What write queue length does an incoming req see
system.mem_ctrls.wrQLenPdf::36                      0                       # What write queue length does an incoming req see
system.mem_ctrls.wrQLenPdf::37                      0                       # What write queue length does an incoming req see
system.mem_ctrls.wrQLenPdf::38                      0                       # What write queue length does an incoming req see
system.mem_ctrls.wrQLenPdf::39                      0                       # What write queue length does an incoming req see
system.mem_ctrls.wrQLenPdf::40                      0                       # What write queue length does an incoming req see
system.mem_ctrls.wrQLenPdf::41                      0                       # What write queue length does an incoming req see
system.mem_ctrls.wrQLenPdf::42                      0                       # What write queue length does an incoming req see
system.mem_ctrls.wrQLenPdf::43                      0                       # What write queue length does an incoming req see
system.mem_ctrls.wrQLenPdf::44                      0                       # What write queue length does an incoming req see
system.mem_ctrls.wrQLenPdf::45                      0                       # What write queue length does an incoming req see
system.mem_ctrls.wrQLenPdf::46                      0                       # What write queue length does an incoming req see
system.mem_ctrls.wrQLenPdf::47                      0                       # What write queue length does an incoming req see
system.mem_ctrls.wrQLenPdf::48                      0                       # What write queue length does an incoming req see
system.mem_ctrls.wrQLenPdf::49                      0                       # What write queue length does an incoming req see
system.mem_ctrls.wrQLenPdf::50                      0                       # What write queue length does an incoming req see
system.mem_ctrls.wrQLenPdf::51                      0                       # What write queue length does an incoming req see
system.mem_ctrls.wrQLenPdf::52                      0                       # What write queue length does an incoming req see
system.mem_ctrls.wrQLenPdf::53                      0                       # What write queue length does an incoming req see
system.mem_ctrls.wrQLenPdf::54                      0                       # What write queue length does an incoming req see
system.mem_ctrls.wrQLenPdf::55                      0                       # What write queue length does an incoming req see
system.mem_ctrls.wrQLenPdf::56                      0                       # What write queue length does an incoming req see
system.mem_ctrls.wrQLenPdf::57                      0                       # What write queue length does an incoming req see
system.mem_ctrls.wrQLenPdf::58                      0                       # What write queue length does an incoming req see
system.mem_ctrls.wrQLenPdf::59                      0                       # What write queue length does an incoming req see
system.mem_ctrls.wrQLenPdf::60                      0                       # What write queue length does an incoming req see
system.mem_ctrls.wrQLenPdf::61                      0                       # What write queue length does an incoming req see
system.mem_ctrls.wrQLenPdf::62                      0                       # What write queue length does an incoming req see
system.mem_ctrls.wrQLenPdf::63                      0                       # What write queue length does an incoming req see
system.mem_ctrls.bytesPerActivate::samples         1788                       # Bytes accessed per row activation
system.mem_ctrls.bytesPerActivate::mean    264.554810                       # Bytes accessed per row activation
system.mem_ctrls.bytesPerActivate::gmean   159.510474                       # Bytes accessed per row activation
system.mem_ctrls.bytesPerActivate::stdev   304.135180                       # Bytes accessed per row activation
system.mem_ctrls.bytesPerActivate::0-127          684     38.26%     38.26% # Bytes accessed per row activation
system.mem_ctrls.bytesPerActivate::128-255          567     31.71%     69.97% # Bytes accessed per row activation
system.mem_ctrls.bytesPerActivate::256-383          170      9.51%     79.47% # Bytes accessed per row activation
system.mem_ctrls.bytesPerActivate::384-511           56      3.13%     82.61% # Bytes accessed per row activation
system.mem_ctrls.bytesPerActivate::512-639           47      2.63%     85.23% # Bytes accessed per row activation
system.mem_ctrls.bytesPerActivate::640-767           34      1.90%     87.14% # Bytes accessed per row activation
system.mem_ctrls.bytesPerActivate::768-895           32      1.79%     88.93% # Bytes accessed per row activation
system.mem_ctrls.bytesPerActivate::896-1023           35      1.96%     90.88% # Bytes accessed per row activation
system.mem_ctrls.bytesPerActivate::1024-1151          163      9.12%    100.00% # Bytes accessed per row activation
system.mem_ctrls.bytesPerActivate::total         1788                       # Bytes accessed per row activation
system.mem_ctrls.bytesReadDRAM                 475840                       # Total number of bytes read from DRAM
system.mem_ctrls.bytesReadWrQ                       0                       # Total number of bytes read from write queue
system.mem_ctrls.bytesWritten                       0                       # Total number of bytes written to DRAM
system.mem_ctrls.bytesReadSys                  475840                       # Total read bytes from the system interface side
system.mem_ctrls.bytesWrittenSys                    0                       # Total written bytes from the system interface side
system.mem_ctrls.avgRdBW                         2.47                       # Average DRAM read bandwidth in MiByte/s
system.mem_ctrls.avgWrBW                         0.00                       # Average achieved write bandwidth in MiByte/s
system.mem_ctrls.avgRdBWSys                      2.47                       # Average system read bandwidth in MiByte/s
system.mem_ctrls.avgWrBWSys                      0.00                       # Average system write bandwidth in MiByte/s
system.mem_ctrls.peakBW                      12800.00                       # Theoretical peak bandwidth in MiByte/s
system.mem_ctrls.busUtil                         0.02                       # Data bus utilization in percentage
system.mem_ctrls.busUtilRead                     0.02                       # Data bus utilization in percentage for reads
system.mem_ctrls.busUtilWrite                    0.00                       # Data bus utilization in percentage for writes
system.mem_ctrls.totGap                  192321560592                       # Total gap between requests
system.mem_ctrls.avgGap                   25867055.90                       # Average gap between requests
system.mem_ctrls.masterReadBytes::.cpu_cluster.cpus.inst        99008                       # Per-master bytes read from memory
system.mem_ctrls.masterReadBytes::.cpu_cluster.cpus.data       134336                       # Per-master bytes read from memory
system.mem_ctrls.masterReadBytes::.cpu_cluster.l2.prefetcher       242496                       # Per-master bytes read from memory
system.mem_ctrls.masterReadRate::.cpu_cluster.cpus.inst 514804.278934117989                       # Per-master bytes read from memory rate (Bytes/sec)
system.mem_ctrls.masterReadRate::.cpu_cluster.cpus.data 698496.562044417369                       # Per-master bytes read from memory rate (Bytes/sec)
system.mem_ctrls.masterReadRate::.cpu_cluster.l2.prefetcher 1260887.791132109240                       # Per-master bytes read from memory rate (Bytes/sec)
system.mem_ctrls.masterReadAccesses::.cpu_cluster.cpus.inst         1547                       # Per-master read serviced memory accesses
system.mem_ctrls.masterReadAccesses::.cpu_cluster.cpus.data         2099                       # Per-master read serviced memory accesses
system.mem_ctrls.masterReadAccesses::.cpu_cluster.l2.prefetcher         3789                       # Per-master read serviced memory accesses
system.mem_ctrls.masterReadTotalLat::.cpu_cluster.cpus.inst     64838517                       # Per-master read total memory access latency
system.mem_ctrls.masterReadTotalLat::.cpu_cluster.cpus.data     98308278                       # Per-master read total memory access latency
system.mem_ctrls.masterReadTotalLat::.cpu_cluster.l2.prefetcher    211238471                       # Per-master read total memory access latency
system.mem_ctrls.masterReadAvgLat::.cpu_cluster.cpus.inst     41912.42                       # Per-master read average memory access latency
system.mem_ctrls.masterReadAvgLat::.cpu_cluster.cpus.data     46835.77                       # Per-master read average memory access latency
system.mem_ctrls.masterReadAvgLat::.cpu_cluster.l2.prefetcher     55750.45                       # Per-master read average memory access latency
system.mem_ctrls.pageHitRate                    75.79                       # Row buffer hit rate, read and write combined
system.mem_ctrls.rank0.actEnergy                    0                       # Energy for activate commands per rank (pJ)
system.mem_ctrls.rank0.preEnergy                    0                       # Energy for precharge commands per rank (pJ)
system.mem_ctrls.rank0.readEnergy                   0                       # Energy for read commands per rank (pJ)
system.mem_ctrls.rank0.writeEnergy                  0                       # Energy for write commands per rank (pJ)
system.mem_ctrls.rank0.refreshEnergy                0                       # Energy for refresh commands per rank (pJ)
system.mem_ctrls.rank0.actBackEnergy                0                       # Energy for active background per rank (pJ)
system.mem_ctrls.rank0.preBackEnergy                0                       # Energy for precharge background per rank (pJ)
system.mem_ctrls.rank0.actPowerDownEnergy            0                       # Energy for active power-down per rank (pJ)
system.mem_ctrls.rank0.prePowerDownEnergy            0                       # Energy for precharge power-down per rank (pJ)
system.mem_ctrls.rank0.selfRefreshEnergy            0                       # Energy for self refresh per rank (pJ)
system.mem_ctrls.rank0.totalEnergy                  0                       # Total energy per rank (pJ)
system.mem_ctrls.rank0.averagePower                 0                       # Core power per rank (mW)
system.mem_ctrls.rank0.totalIdleTime                0                       # Total Idle time Per DRAM Rank
system.mem_ctrls.rank0.memoryStateTime::IDLE 179965696671                       # Time in different power states
system.mem_ctrls.rank0.memoryStateTime::REF  10403610000                       # Time in different power states
system.mem_ctrls.rank0.memoryStateTime::SREF            0                       # Time in different power states
system.mem_ctrls.rank0.memoryStateTime::PRE_PDN            0                       # Time in different power states
system.mem_ctrls.rank0.memoryStateTime::ACT   1952327106                       # Time in different power states
system.mem_ctrls.rank0.memoryStateTime::ACT_PDN            0                       # Time in different power states

---------- End Simulation Statistics   ----------
