gem5 Simulator System.  http://gem5.org
gem5 is copyrighted software; use the --copyright option for details.

gem5 compiled Apr 14 2022 20:31:20
gem5 started Nov 11 2022 19:37:49
gem5 executing on node4x10a.cs.rochester.edu, pid 29134
command line: /u/sgupta45/gem5-SALAM/build/ARM/gem5.opt --debug-flags=HWACC,CommInterface,LLVMInterface,StreamDma,NoncoherentDma,TickTimer --outdir=BM_ARM_OUT/image_4_parallel_dma/canny_0_deblur_4_gru_4_harris_4_lstm_0_GLAX_pipeline configs/SALAM/scheduler.py --mem-size=4GB --mem-type=LPDDR5_6400_1x16_BG_BL32 --kernel=/u/sgupta45/gem5-SALAM/benchmarks/scheduler/sw/bin/canny_0_deblur_4_gru_4_harris_4_lstm_0_GLAX.elf --vans-config-path=/u/sgupta45/VANS/config --disk-image=/u/sgupta45/gem5-SALAM/baremetal/common/fake.iso --machine-type=VExpress_GEM5_V1 --dtb-file=none --bare-metal --cpu-type=ex5_LITTLE --cpu-clock=1.6GHz --accpath=/u/sgupta45/gem5-SALAM/benchmarks --caches --cacheline_size=64 --l1d_size=32kB --l1d_assoc=4 --l1i_size=32kB --l1i_assoc=2

Global frequency set at 1000000000000 ticks per second
Cycle Counts Loaded!
Cycle Counts Loaded!
Cycle Counts Loaded!
Cycle Counts Loaded!
Cycle Counts Loaded!
Cycle Counts Loaded!
Cycle Counts Loaded!
Cycle Counts Loaded!
Cycle Counts Loaded!
Cycle Counts Loaded!
Cycle Counts Loaded!
**** REAL SIMULATION ****
14444755875: system.acctest.elem_matrix0_dma: SRC:0x0000000082300380, DST:0x0000000024000020, LEN:65536
14452749000: system.acctest.elem_matrix1_dma: SRC:0x0000000082b19b80, DST:0x0000000024100020, LEN:65536
14457716875: system.acctest.elem_matrix0_dma: Transfer completed in 12.961 us
14460335000: system.acctest.elem_matrix2_dma: SRC:0x0000000083333380, DST:0x0000000024200020, LEN:65536
14468078000: system.acctest.elem_matrix3_dma: SRC:0x0000000083b4cb80, DST:0x0000000024300020, LEN:65536
14471154000: system.acctest.elem_matrix1_dma: Transfer completed in 18.405 us
14471600000: system.acctest.isp0_dma: SRC:0x0000000082058a40, DST:0x0000000027000020, LEN:16900
14476164000: system.acctest.isp0_dma: Transfer completed in 4.564 us
14480298750: system.acctest.elem_matrix0_dma: SRC:0x0000000082200200, DST:0x0000000024010020, LEN:65536
14483034000: system.acctest.elem_matrix2_dma: Transfer completed in 22.699 us
14486563000: system.acctest.elem_matrix3_dma: Transfer completed in 18.485 us
14487884500: system.acctest.elem_matrix1_dma: SRC:0x0000000082a19a00, DST:0x0000000024110020, LEN:65536
14495302000: system.acctest.elem_matrix2_dma: SRC:0x0000000083233200, DST:0x0000000024210020, LEN:65536
14496021750: system.acctest.elem_matrix0_dma: Transfer completed in 15.723 us
14502969500: system.acctest.elem_matrix3_dma: SRC:0x0000000083a4ca00, DST:0x0000000024310020, LEN:65536
14506295500: system.acctest.elem_matrix1_dma: Transfer completed in 18.411 us
********************************************************************************
system.acctest.elem_matrix0.compute
   ========= Performance Analysis =============
   Setup Time:                      3.78819seconds
   Simulation Time:                 324.839seconds
   System Clock:                    1GHz
   Transistor Latency:              1ns
   Runtime:                         10932 cycles
   Runtime:                         10.932 us
   Stalls:                          0 cycles
   Executed Nodes:                  10931 cycles

********************************************************************************
   ========= Performance Analysis =================
   Setup Time:                      3.78819e+09ns
   Simulation Time:                 3.24839e+11ns
   System Clock:                    1GHz
   Transistor Latency:              0ns
   Runtime:                         10932 cycles
   Runtime:                         1.0932e-06 seconds
   Stalls:                          0 cycles
       Load Only:                   0 cycles
       Store Only:                  0 cycles
       Compute Only:                0 cycles
       Compute & Store:             0 cycles
       Load & Store:                0 cycles
       Load & Compute:              0 cycles
       Load & Compute & Store:      0 cycles
   Executed Nodes:                  10931 cycles
       Load Only:                   0 cycles
       Store Only:                  5 cycles
       Compute Only:                1 cycles
       Compute & Store:             21 cycles
       Load & Store:                0 cycles
       Load & Compute:              7 cycles
       Load & Compute & Store:      10897 cycles

   ========= Runtime FU's ========= (Max | Avg) ===
   Counter FU's:                      32 | 0.046838
   Integer Add/Sub FU's:               0 | 0.000000
   Integer Mul/Div FU's:               0 | 0.000000
   Integer Shifter FU's:               0 | 0.000000
   Integer Bitwise FU's:               1 | 0.000091
   Floating Point Float Add/Sub:      34 | 0.044252
   Floating Point Double Add/Sub:      0 | 0.000000
   Floating Point Float Mul/Div:       0 | 0.000000
   Floating Point Double Mul/Div:      0 | 0.000000
   0 Cycle Compare FU's:             102 | 0.046974
   GEP Instruction FU's:              96 | 0.046835
   Type Conversion FU's:               7 | 0.006782

   ========= Static FU's ==========================
   Counter FU's:                    0
   Integer Add/Sub FU's:            0
   Integer Mul/Div FU's:            0
   Integer Shifter FU's:            0
   Integer Bitwise FU's:            0
   Floating Point Float Add/Sub:    0
   Floating Point Double Add/Sub:   0
   Floating Point Float Mul/Div:    0
   Floating Point Double Mul/Div:   0
   0 Cycle Compare FU's:            0
   GEP Instruction FU's:            0
   Type Conversion FU's:            0
   Other:                           0

   ========= Pipeline Register Usage =============
   Total Number of Registers:       5641
   Max Register Usage Per Cycle:    138
   Avg Register Usage Per Cycle:    12.130992
   Avg Register Size (Bytes):       5.980606

   ========= Memory Configuration =================
   Cache Bus Ports:                 0
   Shared Cache Size:               0kB
   Local Bus Ports:                 0
   Private SPM Size:                256kB
   Private Read Ports:              0
   Private Write Ports:             0
   Private Read Bus Width:          64
   Private Write Bus Width:         64
       Memory Reads:                0
       Memory Writes:               0
   ========= Power Analysis ======================
   FU Leakage Power:                0.519269 mW 
   FU Dynamic Power:                0.154621 mW 
   FU Total Power:                  0.673890 mW 

   Registers Leakage Power:          0.005281 mW 
   Registers Dynamic Power:          0.015326 mW 
       Register Reads (Bits):        132616
       Register Writes (Bits):       133658
   Registers Total Power:            0.020607 mW

   SPM Leakage Power:               0.104100 mW
   SPM Read Dynamic Power:          1.997266 mW
   SPM Write Dynamic Power:         0.953321 mW
   SPM Total Power:                 3.054688 mW

   Cache Leakage Power:             0.000000 mW
   Cache Read Dynamic Power:        0.000000 mW
   Cache Write Dynamic Power:       0.000000 mW
   Cache Total Power:               0.000000 mW

   Accelerator Power:               0.694497 mW
   Accelerator Power (SPM):         3.749184 mW
   Accelerator Power (Cache):       0.694497 mW

   ========= Area Analysis =======================
   FU Area:                         70212.562500 um^2 (0.070213 mm^2)
   Register Area:                   429.271088 um^2 (0.000429 mm^2)
   SPM Area:                        2177.365505 um^2 (0.002177 mm^2)
   Cache Area:                      0.000000 um^2 (0.000000 mm^2)

   Accelerator Area:                70641.835938 um^2 (0.070642 mm^2)
   Accelerator Area (SPM):          72819.201442 um^2 (0.072819 mm^2)
   Accelerator Area (Cache):        70641.835938 um^2 (0.070642 mm^2)

   ========= SPM Resizing  =======================
   SPM Optimized Leakage Power:     0.004248 mW
   SPM Opt Area:                    178.524902 um^2

14515975000: system.acctest.elem_matrix2_dma: Transfer completed in 20.673 us
********************************************************************************
system.acctest.elem_matrix1.compute
   ========= Performance Analysis =============
   Setup Time:                      3.595040seconds
   Simulation Time:                 357.724869seconds
   System Clock:                    1.000000GHz
   Transistor Latency:              1ns
   Runtime:                         10932 cycles
   Runtime:                         10.932000 us
   Stalls:                          0 cycles
   Executed Nodes:                  10931 cycles

********************************************************************************
   ========= Performance Analysis =================
   Setup Time:                      3595040483.000000ns
   Simulation Time:                 357724868609.000000ns
   System Clock:                    1.000000GHz
   Transistor Latency:              0ns
   Runtime:                         10932 cycles
   Runtime:                         0.000001 seconds
   Stalls:                          0 cycles
       Load Only:                   0 cycles
       Store Only:                  0 cycles
       Compute Only:                0 cycles
       Compute & Store:             0 cycles
       Load & Store:                0 cycles
       Load & Compute:              0 cycles
       Load & Compute & Store:      0 cycles
   Executed Nodes:                  10931 cycles
       Load Only:                   0 cycles
       Store Only:                  5 cycles
       Compute Only:                1 cycles
       Compute & Store:             21 cycles
       Load & Store:                0 cycles
       Load & Compute:              7 cycles
       Load & Compute & Store:      10897 cycles

   ========= Runtime FU's ========= (Max | Avg) ===
   Counter FU's:                      32 | 0.046838
   Integer Add/Sub FU's:               0 | 0.000000
   Integer Mul/Div FU's:               0 | 0.000000
   Integer Shifter FU's:               0 | 0.000000
   Integer Bitwise FU's:               1 | 0.000091
   Floating Point Float Add/Sub:      34 | 0.044252
   Floating Point Double Add/Sub:      0 | 0.000000
   Floating Point Float Mul/Div:       0 | 0.000000
   Floating Point Double Mul/Div:      0 | 0.000000
   0 Cycle Compare FU's:             102 | 0.046974
   GEP Instruction FU's:              96 | 0.046835
   Type Conversion FU's:               7 | 0.006782

   ========= Static FU's ==========================
   Counter FU's:                    0
   Integer Add/Sub FU's:            0
   Integer Mul/Div FU's:            0
   Integer Shifter FU's:            0
   Integer Bitwise FU's:            0
   Floating Point Float Add/Sub:    0
   Floating Point Double Add/Sub:   0
   Floating Point Float Mul/Div:    0
   Floating Point Double Mul/Div:   0
   0 Cycle Compare FU's:            0
   GEP Instruction FU's:            0
   Type Conversion FU's:            0
   Other:                           0

   ========= Pipeline Register Usage =============
   Total Number of Registers:       5641
   Max Register Usage Per Cycle:    138
   Avg Register Usage Per Cycle:    12.130992
   Avg Register Size (Bytes):       5.980606

   ========= Memory Configuration =================
   Cache Bus Ports:                 0
   Shared Cache Size:               0kB
   Local Bus Ports:                 0
   Private SPM Size:                256kB
   Private Read Ports:              0
   Private Write Ports:             0
   Private Read Bus Width:          64
   Private Write Bus Width:         64
       Memory Reads:                0
       Memory Writes:               0
   ========= Power Analysis ======================
   FU Leakage Power:                0.519269 mW 
   FU Dynamic Power:                0.154621 mW 
   FU Total Power:                  0.673890 mW 

   Registers Leakage Power:          0.005281 mW 
   Registers Dynamic Power:          0.015326 mW 
       Register Reads (Bits):        132616
       Register Writes (Bits):       133658
   Registers Total Power:            0.020607 mW

   SPM Leakage Power:               0.104100 mW
   SPM Read Dynamic Power:          1.997266 mW
   SPM Write Dynamic Power:         0.953321 mW
   SPM Total Power:                 3.054688 mW

   Cache Leakage Power:             0.000000 mW
   Cache Read Dynamic Power:        0.000000 mW
   Cache Write Dynamic Power:       0.000000 mW
   Cache Total Power:               0.000000 mW

   Accelerator Power:               0.694497 mW
   Accelerator Power (SPM):         3.749184 mW
   Accelerator Power (Cache):       0.694497 mW

   ========= Area Analysis =======================
   FU Area:                         70212.562500 um^2 (0.070213 mm^2)
   Register Area:                   429.271088 um^2 (0.000429 mm^2)
   SPM Area:                        2177.365505 um^2 (0.002177 mm^2)
   Cache Area:                      0.000000 um^2 (0.000000 mm^2)

   Accelerator Area:                70641.835938 um^2 (0.070642 mm^2)
   Accelerator Area (SPM):          72819.201442 um^2 (0.072819 mm^2)
   Accelerator Area (Cache):        70641.835938 um^2 (0.070642 mm^2)

   ========= SPM Resizing  =======================
   SPM Optimized Leakage Power:     0.004248 mW
   SPM Opt Area:                    178.524902 um^2

14520220500: system.acctest.elem_matrix3_dma: Transfer completed in 17.251 us
14523303750: system.acctest.elem_matrix0_dma: SRC:0x0000000024020020, DST:0x0000000082210200, LEN:65536
14529974750: system.acctest.elem_matrix0_dma: Transfer completed in 6.671 us
14532292375: system.acctest.elem_matrix1_dma: SRC:0x0000000024120020, DST:0x0000000082a29a00, LEN:65536
14539006375: system.acctest.elem_matrix1_dma: Transfer completed in 6.714 us
14541038750: system.acctest.elem_matrix0_dma: SRC:0x00000000821c0200, DST:0x0000000024000020, LEN:65536
********************************************************************************
system.acctest.isp0.compute
   ========= Performance Analysis =============
   Setup Time:                      0.145271seconds
   Simulation Time:                 693.271725seconds
   System Clock:                    1.000000GHz
   Transistor Latency:              1ns
   Runtime:                         34882 cycles
   Runtime:                         34.882000 us
   Stalls:                          1 cycles
   Executed Nodes:                  34880 cycles

********************************************************************************
   ========= Performance Analysis =================
   Setup Time:                      145271062.000000ns
   Simulation Time:                 693271724870.000000ns
   System Clock:                    1.000000GHz
   Transistor Latency:              0ns
   Runtime:                         34882 cycles
   Runtime:                         0.000003 seconds
   Stalls:                          1 cycles
       Load Only:                   0 cycles
       Store Only:                  1 cycles
       Compute Only:                0 cycles
       Compute & Store:             0 cycles
       Load & Store:                0 cycles
       Load & Compute:              0 cycles
       Load & Compute & Store:      0 cycles
   Executed Nodes:                  34880 cycles
       Load Only:                   0 cycles
       Store Only:                  1 cycles
       Compute Only:                3453 cycles
       Compute & Store:             19014 cycles
       Load & Store:                0 cycles
       Load & Compute:              2467 cycles
       Load & Compute & Store:      9945 cycles

   ========= Runtime FU's ========= (Max | Avg) ===
   Counter FU's:                      10 | 0.118075
   Integer Add/Sub FU's:              76 | 0.082082
   Integer Mul/Div FU's:              11 | 0.043888
   Integer Shifter FU's:              42 | 0.055974
   Integer Bitwise FU's:               4 | 0.059443
   Floating Point Float Add/Sub:      53 | 0.116839
   Floating Point Double Add/Sub:      0 | 0.000000
   Floating Point Float Mul/Div:      76 | 0.625626
   Floating Point Double Mul/Div:      0 | 0.000000
   0 Cycle Compare FU's:              85 | 0.664984
   GEP Instruction FU's:              33 | 0.117424
   Type Conversion FU's:             110 | 0.379700

   ========= Static FU's ==========================
   Counter FU's:                    0
   Integer Add/Sub FU's:            0
   Integer Mul/Div FU's:            0
   Integer Shifter FU's:            0
   Integer Bitwise FU's:            0
   Floating Point Float Add/Sub:    0
   Floating Point Double Add/Sub:   0
   Floating Point Float Mul/Div:    0
   Floating Point Double Mul/Div:   0
   0 Cycle Compare FU's:            0
   GEP Instruction FU's:            0
   Type Conversion FU's:            0
   Other:                           0

   ========= Pipeline Register Usage =============
   Total Number of Registers:       1620
   Max Register Usage Per Cycle:    151
   Avg Register Usage Per Cycle:    58.744711
   Avg Register Size (Bytes):       5.073357

   ========= Memory Configuration =================
   Cache Bus Ports:                 0
   Shared Cache Size:               0kB
   Local Bus Ports:                 0
   Private SPM Size:                112kB
   Private Read Ports:              0
   Private Write Ports:             0
   Private Read Bus Width:          64
   Private Write Bus Width:         64
       Memory Reads:                0
       Memory Writes:               0
   ========= Power Analysis ======================
   FU Leakage Power:                1.637787 mW 
   FU Dynamic Power:                9.655087 mW 
   FU Total Power:                  11.292874 mW 

   Registers Leakage Power:          0.021654 mW 
   Registers Dynamic Power:          3.085961 mW 
       Register Reads (Bits):        2049133
       Register Writes (Bits):       2049168
   Registers Total Power:            3.107615 mW

   SPM Leakage Power:               0.061081 mW
   SPM Read Dynamic Power:          11.103730 mW
   SPM Write Dynamic Power:         7.385230 mW
   SPM Total Power:                 18.550041 mW

   Cache Leakage Power:             0.000000 mW
   Cache Read Dynamic Power:        0.000000 mW
   Cache Write Dynamic Power:       0.000000 mW
   Cache Total Power:               0.000000 mW

   Accelerator Power:               14.400490 mW
   Accelerator Power (SPM):         32.950531 mW
   Accelerator Power (Cache):       14.400490 mW

   ========= Area Analysis =======================
   FU Area:                         176023.796875 um^2 (0.176024 mm^2)
   Register Area:                   1760.064941 um^2 (0.001760 mm^2)
   SPM Area:                        2165.394891 um^2 (0.002165 mm^2)
   Cache Area:                      0.000000 um^2 (0.000000 mm^2)

   Accelerator Area:                177783.859375 um^2 (0.177784 mm^2)
   Accelerator Area (SPM):          179949.254266 um^2 (0.179949 mm^2)
   Accelerator Area (Cache):        177783.859375 um^2 (0.177784 mm^2)

   ========= SPM Resizing  =======================
   SPM Optimized Leakage Power:     0.005964 mW
   SPM Opt Area:                    422.108128 um^2

14548871000: system.acctest.elem_matrix1_dma: SRC:0x00000000821c0200, DST:0x0000000024100020, LEN:65536
14553436750: system.acctest.elem_matrix0_dma: Transfer completed in 12.398 us
14553990875: system.acctest.grayscale0_dma: SRC:0x0000000027004224, DST:0x0000000025000020, LEN:49152
14556759000: system.acctest.isp0_dma: SRC:0x00000000820ba880, DST:0x0000000027000020, LEN:16900
********************************************************************************
system.acctest.elem_matrix2.compute
   ========= Performance Analysis =============
   Setup Time:                      7.787094seconds
   Simulation Time:                 295.773798seconds
   System Clock:                    1.000000GHz
   Transistor Latency:              1ns
   Runtime:                         10932 cycles
   Runtime:                         10.932000 us
   Stalls:                          0 cycles
   Executed Nodes:                  10931 cycles

********************************************************************************
   ========= Performance Analysis =================
   Setup Time:                      7787093616.000000ns
   Simulation Time:                 295773797621.000000ns
   System Clock:                    1.000000GHz
   Transistor Latency:              0ns
   Runtime:                         10932 cycles
   Runtime:                         0.000001 seconds
   Stalls:                          0 cycles
       Load Only:                   0 cycles
       Store Only:                  0 cycles
       Compute Only:                0 cycles
       Compute & Store:             0 cycles
       Load & Store:                0 cycles
       Load & Compute:              0 cycles
       Load & Compute & Store:      0 cycles
   Executed Nodes:                  10931 cycles
       Load Only:                   0 cycles
       Store Only:                  5 cycles
       Compute Only:                1 cycles
       Compute & Store:             21 cycles
       Load & Store:                0 cycles
       Load & Compute:              7 cycles
       Load & Compute & Store:      10897 cycles

   ========= Runtime FU's ========= (Max | Avg) ===
   Counter FU's:                      32 | 0.046838
   Integer Add/Sub FU's:               0 | 0.000000
   Integer Mul/Div FU's:               0 | 0.000000
   Integer Shifter FU's:               0 | 0.000000
   Integer Bitwise FU's:               1 | 0.000091
   Floating Point Float Add/Sub:      34 | 0.044252
   Floating Point Double Add/Sub:      0 | 0.000000
   Floating Point Float Mul/Div:       0 | 0.000000
   Floating Point Double Mul/Div:      0 | 0.000000
   0 Cycle Compare FU's:             102 | 0.046974
   GEP Instruction FU's:              96 | 0.046835
   Type Conversion FU's:               7 | 0.006782

   ========= Static FU's ==========================
   Counter FU's:                    0
   Integer Add/Sub FU's:            0
   Integer Mul/Div FU's:            0
   Integer Shifter FU's:            0
   Integer Bitwise FU's:            0
   Floating Point Float Add/Sub:    0
   Floating Point Double Add/Sub:   0
   Floating Point Float Mul/Div:    0
   Floating Point Double Mul/Div:   0
   0 Cycle Compare FU's:            0
   GEP Instruction FU's:            0
   Type Conversion FU's:            0
   Other:                           0

   ========= Pipeline Register Usage =============
   Total Number of Registers:       5641
   Max Register Usage Per Cycle:    138
   Avg Register Usage Per Cycle:    12.130992
   Avg Register Size (Bytes):       5.980606

   ========= Memory Configuration =================
   Cache Bus Ports:                 0
   Shared Cache Size:               0kB
   Local Bus Ports:                 0
   Private SPM Size:                256kB
   Private Read Ports:              0
   Private Write Ports:             0
   Private Read Bus Width:          64
   Private Write Bus Width:         64
       Memory Reads:                0
       Memory Writes:               0
   ========= Power Analysis ======================
   FU Leakage Power:                0.519269 mW 
   FU Dynamic Power:                0.154621 mW 
   FU Total Power:                  0.673890 mW 

   Registers Leakage Power:          0.005281 mW 
   Registers Dynamic Power:          0.015326 mW 
       Register Reads (Bits):        132616
       Register Writes (Bits):       133658
   Registers Total Power:            0.020607 mW

   SPM Leakage Power:               0.104100 mW
   SPM Read Dynamic Power:          1.997266 mW
   SPM Write Dynamic Power:         0.953321 mW
   SPM Total Power:                 3.054688 mW

   Cache Leakage Power:             0.000000 mW
   Cache Read Dynamic Power:        0.000000 mW
   Cache Write Dynamic Power:       0.000000 mW
   Cache Total Power:               0.000000 mW

   Accelerator Power:               0.694497 mW
   Accelerator Power (SPM):         3.749184 mW
   Accelerator Power (Cache):       0.694497 mW

   ========= Area Analysis =======================
   FU Area:                         70212.562500 um^2 (0.070213 mm^2)
   Register Area:                   429.271088 um^2 (0.000429 mm^2)
   SPM Area:                        2177.365505 um^2 (0.002177 mm^2)
   Cache Area:                      0.000000 um^2 (0.000000 mm^2)

   Accelerator Area:                70641.835938 um^2 (0.070642 mm^2)
   Accelerator Area (SPM):          72819.201442 um^2 (0.072819 mm^2)
   Accelerator Area (Cache):        70641.835938 um^2 (0.070642 mm^2)

   ========= SPM Resizing  =======================
   SPM Optimized Leakage Power:     0.004248 mW
   SPM Opt Area:                    178.524902 um^2

********************************************************************************
system.acctest.elem_matrix3.compute
   ========= Performance Analysis =============
   Setup Time:                      4.203068seconds
   Simulation Time:                 294.892794seconds
   System Clock:                    1.000000GHz
   Transistor Latency:              1ns
   Runtime:                         10932 cycles
   Runtime:                         10.932000 us
   Stalls:                          0 cycles
   Executed Nodes:                  10931 cycles

********************************************************************************
   ========= Performance Analysis =================
   Setup Time:                      4203068148.000000ns
   Simulation Time:                 294892794332.000000ns
   System Clock:                    1.000000GHz
   Transistor Latency:              0ns
   Runtime:                         10932 cycles
   Runtime:                         0.000001 seconds
   Stalls:                          0 cycles
       Load Only:                   0 cycles
       Store Only:                  0 cycles
       Compute Only:                0 cycles
       Compute & Store:             0 cycles
       Load & Store:                0 cycles
       Load & Compute:              0 cycles
       Load & Compute & Store:      0 cycles
   Executed Nodes:                  10931 cycles
       Load Only:                   0 cycles
       Store Only:                  5 cycles
       Compute Only:                1 cycles
       Compute & Store:             21 cycles
       Load & Store:                0 cycles
       Load & Compute:              7 cycles
       Load & Compute & Store:      10897 cycles

   ========= Runtime FU's ========= (Max | Avg) ===
   Counter FU's:                      32 | 0.046838
   Integer Add/Sub FU's:               0 | 0.000000
   Integer Mul/Div FU's:               0 | 0.000000
   Integer Shifter FU's:               0 | 0.000000
   Integer Bitwise FU's:               1 | 0.000091
   Floating Point Float Add/Sub:      34 | 0.044252
   Floating Point Double Add/Sub:      0 | 0.000000
   Floating Point Float Mul/Div:       0 | 0.000000
   Floating Point Double Mul/Div:      0 | 0.000000
   0 Cycle Compare FU's:             102 | 0.046974
   GEP Instruction FU's:              96 | 0.046835
   Type Conversion FU's:               7 | 0.006782

   ========= Static FU's ==========================
   Counter FU's:                    0
   Integer Add/Sub FU's:            0
   Integer Mul/Div FU's:            0
   Integer Shifter FU's:            0
   Integer Bitwise FU's:            0
   Floating Point Float Add/Sub:    0
   Floating Point Double Add/Sub:   0
   Floating Point Float Mul/Div:    0
   Floating Point Double Mul/Div:   0
   0 Cycle Compare FU's:            0
   GEP Instruction FU's:            0
   Type Conversion FU's:            0
   Other:                           0

   ========= Pipeline Register Usage =============
   Total Number of Registers:       5641
   Max Register Usage Per Cycle:    138
   Avg Register Usage Per Cycle:    12.130992
   Avg Register Size (Bytes):       5.980606

   ========= Memory Configuration =================
   Cache Bus Ports:                 0
   Shared Cache Size:               0kB
   Local Bus Ports:                 0
   Private SPM Size:                256kB
   Private Read Ports:              0
   Private Write Ports:             0
   Private Read Bus Width:          64
   Private Write Bus Width:         64
       Memory Reads:                0
       Memory Writes:               0
   ========= Power Analysis ======================
   FU Leakage Power:                0.519269 mW 
   FU Dynamic Power:                0.154621 mW 
   FU Total Power:                  0.673890 mW 

   Registers Leakage Power:          0.005281 mW 
   Registers Dynamic Power:          0.015326 mW 
       Register Reads (Bits):        132616
       Register Writes (Bits):       133658
   Registers Total Power:            0.020607 mW

   SPM Leakage Power:               0.104100 mW
   SPM Read Dynamic Power:          1.997266 mW
   SPM Write Dynamic Power:         0.953321 mW
   SPM Total Power:                 3.054688 mW

   Cache Leakage Power:             0.000000 mW
   Cache Read Dynamic Power:        0.000000 mW
   Cache Write Dynamic Power:       0.000000 mW
   Cache Total Power:               0.000000 mW

   Accelerator Power:               0.694497 mW
   Accelerator Power (SPM):         3.749184 mW
   Accelerator Power (Cache):       0.694497 mW

   ========= Area Analysis =======================
   FU Area:                         70212.562500 um^2 (0.070213 mm^2)
   Register Area:                   429.271088 um^2 (0.000429 mm^2)
   SPM Area:                        2177.365505 um^2 (0.002177 mm^2)
   Cache Area:                      0.000000 um^2 (0.000000 mm^2)

   Accelerator Area:                70641.835938 um^2 (0.070642 mm^2)
   Accelerator Area (SPM):          72819.201442 um^2 (0.072819 mm^2)
   Accelerator Area (Cache):        70641.835938 um^2 (0.070642 mm^2)

   ========= SPM Resizing  =======================
   SPM Optimized Leakage Power:     0.004248 mW
   SPM Opt Area:                    178.524902 um^2

14563660000: system.acctest.isp0_dma: Transfer completed in 6.901 us
14564782000: system.acctest.elem_matrix1_dma: Transfer completed in 15.911 us
14566649875: system.acctest.grayscale0_dma: Transfer completed in 12.659 us
********************************************************************************
system.acctest.elem_matrix0.compute
   ========= Performance Analysis =============
   Setup Time:                      3.125883seconds
   Simulation Time:                 202.237858seconds
   System Clock:                    1.000000GHz
   Transistor Latency:              1ns
   Runtime:                         10932 cycles
   Runtime:                         10.932000 us
   Stalls:                          1 cycles
   Executed Nodes:                  10930 cycles

********************************************************************************
   ========= Performance Analysis =================
   Setup Time:                      3125882837.000000ns
   Simulation Time:                 202237857605.000000ns
   System Clock:                    1.000000GHz
   Transistor Latency:              0ns
   Runtime:                         10932 cycles
   Runtime:                         0.000001 seconds
   Stalls:                          1 cycles
       Load Only:                   0 cycles
       Store Only:                  1 cycles
       Compute Only:                0 cycles
       Compute & Store:             0 cycles
       Load & Store:                0 cycles
       Load & Compute:              0 cycles
       Load & Compute & Store:      0 cycles
   Executed Nodes:                  10930 cycles
       Load Only:                   0 cycles
       Store Only:                  4 cycles
       Compute Only:                1 cycles
       Compute & Store:             21 cycles
       Load & Store:                0 cycles
       Load & Compute:              6 cycles
       Load & Compute & Store:      10898 cycles

   ========= Runtime FU's ========= (Max | Avg) ===
   Counter FU's:                      32 | 0.046838
   Integer Add/Sub FU's:               0 | 0.000000
   Integer Mul/Div FU's:               0 | 0.000000
   Integer Shifter FU's:               0 | 0.000000
   Integer Bitwise FU's:               1 | 0.000091
   Floating Point Float Add/Sub:       0 | 0.000000
   Floating Point Double Add/Sub:      0 | 0.000000
   Floating Point Float Mul/Div:      34 | 0.044252
   Floating Point Double Mul/Div:      0 | 0.000000
   0 Cycle Compare FU's:             102 | 0.046945
   GEP Instruction FU's:              96 | 0.046835
   Type Conversion FU's:               7 | 0.006782

   ========= Static FU's ==========================
   Counter FU's:                    0
   Integer Add/Sub FU's:            0
   Integer Mul/Div FU's:            0
   Integer Shifter FU's:            0
   Integer Bitwise FU's:            0
   Floating Point Float Add/Sub:    0
   Floating Point Double Add/Sub:   0
   Floating Point Float Mul/Div:    0
   Floating Point Double Mul/Div:   0
   0 Cycle Compare FU's:            0
   GEP Instruction FU's:            0
   Type Conversion FU's:            0
   Other:                           0

   ========= Pipeline Register Usage =============
   Total Number of Registers:       5641
   Max Register Usage Per Cycle:    137
   Avg Register Usage Per Cycle:    12.130992
   Avg Register Size (Bytes):       5.980606

   ========= Memory Configuration =================
   Cache Bus Ports:                 0
   Shared Cache Size:               0kB
   Local Bus Ports:                 0
   Private SPM Size:                256kB
   Private Read Ports:              0
   Private Write Ports:             0
   Private Read Bus Width:          64
   Private Write Bus Width:         64
       Memory Reads:                0
       Memory Writes:               0
   ========= Power Analysis ======================
   FU Leakage Power:                0.045377 mW 
   FU Dynamic Power:                0.142576 mW 
   FU Total Power:                  0.187953 mW 

   Registers Leakage Power:          0.005281 mW 
   Registers Dynamic Power:          0.015326 mW 
       Register Reads (Bits):        132616
       Register Writes (Bits):       133658
   Registers Total Power:            0.020607 mW

   SPM Leakage Power:               0.104100 mW
   SPM Read Dynamic Power:          2.785289 mW
   SPM Write Dynamic Power:         2.044305 mW
   SPM Total Power:                 4.933694 mW

   Cache Leakage Power:             0.000000 mW
   Cache Read Dynamic Power:        0.000000 mW
   Cache Write Dynamic Power:       0.000000 mW
   Cache Total Power:               0.000000 mW

   Accelerator Power:               0.208559 mW
   Accelerator Power (SPM):         5.142254 mW
   Accelerator Power (Cache):       0.208559 mW

   ========= Area Analysis =======================
   FU Area:                         5472.068359 um^2 (0.005472 mm^2)
   Register Area:                   429.271088 um^2 (0.000429 mm^2)
   SPM Area:                        2177.365505 um^2 (0.002177 mm^2)
   Cache Area:                      0.000000 um^2 (0.000000 mm^2)

   Accelerator Area:                5901.339355 um^2 (0.005901 mm^2)
   Accelerator Area (SPM):          8078.704860 um^2 (0.008079 mm^2)
   Accelerator Area (Cache):        5901.339355 um^2 (0.005901 mm^2)

   ========= SPM Resizing  =======================
   SPM Optimized Leakage Power:     0.004248 mW
   SPM Opt Area:                    178.524902 um^2

14569337375: system.acctest.elem_matrix2_dma: SRC:0x0000000024220020, DST:0x0000000083243200, LEN:65536
14576020375: system.acctest.elem_matrix2_dma: Transfer completed in 6.683 us
14578150875: system.acctest.elem_matrix0_dma: SRC:0x00000000821d0200, DST:0x0000000024000020, LEN:65536
14587441000: system.acctest.elem_matrix2_dma: SRC:0x00000000821c0200, DST:0x0000000024200020, LEN:65536
14590381875: system.acctest.elem_matrix0_dma: Transfer completed in 12.231 us
********************************************************************************
system.acctest.elem_matrix1.compute
   ========= Performance Analysis =============
   Setup Time:                      8.689688seconds
   Simulation Time:                 160.463215seconds
   System Clock:                    1.000000GHz
   Transistor Latency:              1ns
   Runtime:                         10932 cycles
   Runtime:                         10.932000 us
   Stalls:                          1 cycles
   Executed Nodes:                  10930 cycles

********************************************************************************
   ========= Performance Analysis =================
   Setup Time:                      8689688011.000000ns
   Simulation Time:                 160463214690.000000ns
   System Clock:                    1.000000GHz
   Transistor Latency:              0ns
   Runtime:                         10932 cycles
   Runtime:                         0.000001 seconds
   Stalls:                          1 cycles
       Load Only:                   0 cycles
       Store Only:                  1 cycles
       Compute Only:                0 cycles
       Compute & Store:             0 cycles
       Load & Store:                0 cycles
       Load & Compute:              0 cycles
       Load & Compute & Store:      0 cycles
   Executed Nodes:                  10930 cycles
       Load Only:                   0 cycles
       Store Only:                  4 cycles
       Compute Only:                1 cycles
       Compute & Store:             21 cycles
       Load & Store:                0 cycles
       Load & Compute:              6 cycles
       Load & Compute & Store:      10898 cycles

   ========= Runtime FU's ========= (Max | Avg) ===
   Counter FU's:                      32 | 0.046838
   Integer Add/Sub FU's:               0 | 0.000000
   Integer Mul/Div FU's:               0 | 0.000000
   Integer Shifter FU's:               0 | 0.000000
   Integer Bitwise FU's:               1 | 0.000091
   Floating Point Float Add/Sub:       0 | 0.000000
   Floating Point Double Add/Sub:      0 | 0.000000
   Floating Point Float Mul/Div:      34 | 0.044252
   Floating Point Double Mul/Div:      0 | 0.000000
   0 Cycle Compare FU's:             102 | 0.046945
   GEP Instruction FU's:              96 | 0.046835
   Type Conversion FU's:               7 | 0.006782

   ========= Static FU's ==========================
   Counter FU's:                    0
   Integer Add/Sub FU's:            0
   Integer Mul/Div FU's:            0
   Integer Shifter FU's:            0
   Integer Bitwise FU's:            0
   Floating Point Float Add/Sub:    0
   Floating Point Double Add/Sub:   0
   Floating Point Float Mul/Div:    0
   Floating Point Double Mul/Div:   0
   0 Cycle Compare FU's:            0
   GEP Instruction FU's:            0
   Type Conversion FU's:            0
   Other:                           0

   ========= Pipeline Register Usage =============
   Total Number of Registers:       5641
   Max Register Usage Per Cycle:    137
   Avg Register Usage Per Cycle:    12.130992
   Avg Register Size (Bytes):       5.980606

   ========= Memory Configuration =================
   Cache Bus Ports:                 0
   Shared Cache Size:               0kB
   Local Bus Ports:                 0
   Private SPM Size:                256kB
   Private Read Ports:              0
   Private Write Ports:             0
   Private Read Bus Width:          64
   Private Write Bus Width:         64
       Memory Reads:                0
       Memory Writes:               0
   ========= Power Analysis ======================
   FU Leakage Power:                0.045377 mW 
   FU Dynamic Power:                0.142576 mW 
   FU Total Power:                  0.187953 mW 

   Registers Leakage Power:          0.005281 mW 
   Registers Dynamic Power:          0.015326 mW 
       Register Reads (Bits):        132616
       Register Writes (Bits):       133658
   Registers Total Power:            0.020607 mW

   SPM Leakage Power:               0.104100 mW
   SPM Read Dynamic Power:          2.785289 mW
   SPM Write Dynamic Power:         2.044305 mW
   SPM Total Power:                 4.933694 mW

   Cache Leakage Power:             0.000000 mW
   Cache Read Dynamic Power:        0.000000 mW
   Cache Write Dynamic Power:       0.000000 mW
   Cache Total Power:               0.000000 mW

   Accelerator Power:               0.208559 mW
   Accelerator Power (SPM):         5.142254 mW
   Accelerator Power (Cache):       0.208559 mW

   ========= Area Analysis =======================
   FU Area:                         5472.068359 um^2 (0.005472 mm^2)
   Register Area:                   429.271088 um^2 (0.000429 mm^2)
   SPM Area:                        2177.365505 um^2 (0.002177 mm^2)
   Cache Area:                      0.000000 um^2 (0.000000 mm^2)

   Accelerator Area:                5901.339355 um^2 (0.005901 mm^2)
   Accelerator Area (SPM):          8078.704860 um^2 (0.008079 mm^2)
   Accelerator Area (Cache):        5901.339355 um^2 (0.005901 mm^2)

   ========= SPM Resizing  =======================
   SPM Optimized Leakage Power:     0.004248 mW
   SPM Opt Area:                    178.524902 um^2

14595482000: system.acctest.elem_matrix3_dma: SRC:0x0000000024320020, DST:0x0000000083a5ca00, LEN:65536
14603555000: system.acctest.elem_matrix3_dma: Transfer completed in 8.073 us
14607053000: system.acctest.elem_matrix2_dma: Transfer completed in 19.612 us
14607585875: system.acctest.elem_matrix1_dma: SRC:0x00000000821d0200, DST:0x0000000024100020, LEN:65536
********************************************************************************
system.acctest.elem_matrix0.compute
   ========= Performance Analysis =============
   Setup Time:                      8.840390seconds
   Simulation Time:                 127.479286seconds
   System Clock:                    1.000000GHz
   Transistor Latency:              1ns
   Runtime:                         10932 cycles
   Runtime:                         10.932000 us
   Stalls:                          0 cycles
   Executed Nodes:                  10931 cycles

********************************************************************************
   ========= Performance Analysis =================
   Setup Time:                      8840389817.000000ns
   Simulation Time:                 127479285711.000000ns
   System Clock:                    1.000000GHz
   Transistor Latency:              0ns
   Runtime:                         10932 cycles
   Runtime:                         0.000001 seconds
   Stalls:                          0 cycles
       Load Only:                   0 cycles
       Store Only:                  0 cycles
       Compute Only:                0 cycles
       Compute & Store:             0 cycles
       Load & Store:                0 cycles
       Load & Compute:              0 cycles
       Load & Compute & Store:      0 cycles
   Executed Nodes:                  10931 cycles
       Load Only:                   0 cycles
       Store Only:                  5 cycles
       Compute Only:                1 cycles
       Compute & Store:             21 cycles
       Load & Store:                0 cycles
       Load & Compute:              7 cycles
       Load & Compute & Store:      10897 cycles

   ========= Runtime FU's ========= (Max | Avg) ===
   Counter FU's:                      32 | 0.046838
   Integer Add/Sub FU's:               0 | 0.000000
   Integer Mul/Div FU's:               0 | 0.000000
   Integer Shifter FU's:               0 | 0.000000
   Integer Bitwise FU's:               1 | 0.000091
   Floating Point Float Add/Sub:      34 | 0.044252
   Floating Point Double Add/Sub:      0 | 0.000000
   Floating Point Float Mul/Div:       0 | 0.000000
   Floating Point Double Mul/Div:      0 | 0.000000
   0 Cycle Compare FU's:             102 | 0.046974
   GEP Instruction FU's:              96 | 0.046835
   Type Conversion FU's:               7 | 0.006782

   ========= Static FU's ==========================
   Counter FU's:                    0
   Integer Add/Sub FU's:            0
   Integer Mul/Div FU's:            0
   Integer Shifter FU's:            0
   Integer Bitwise FU's:            0
   Floating Point Float Add/Sub:    0
   Floating Point Double Add/Sub:   0
   Floating Point Float Mul/Div:    0
   Floating Point Double Mul/Div:   0
   0 Cycle Compare FU's:            0
   GEP Instruction FU's:            0
   Type Conversion FU's:            0
   Other:                           0

   ========= Pipeline Register Usage =============
   Total Number of Registers:       5641
   Max Register Usage Per Cycle:    138
   Avg Register Usage Per Cycle:    12.130992
   Avg Register Size (Bytes):       5.980606

   ========= Memory Configuration =================
   Cache Bus Ports:                 0
   Shared Cache Size:               0kB
   Local Bus Ports:                 0
   Private SPM Size:                256kB
   Private Read Ports:              0
   Private Write Ports:             0
   Private Read Bus Width:          64
   Private Write Bus Width:         64
       Memory Reads:                0
       Memory Writes:               0
   ========= Power Analysis ======================
   FU Leakage Power:                0.519269 mW 
   FU Dynamic Power:                0.154621 mW 
   FU Total Power:                  0.673890 mW 

   Registers Leakage Power:          0.005281 mW 
   Registers Dynamic Power:          0.015326 mW 
       Register Reads (Bits):        132616
       Register Writes (Bits):       133658
   Registers Total Power:            0.020607 mW

   SPM Leakage Power:               0.104100 mW
   SPM Read Dynamic Power:          3.776796 mW
   SPM Write Dynamic Power:         2.457440 mW
   SPM Total Power:                 6.338336 mW

   Cache Leakage Power:             0.000000 mW
   Cache Read Dynamic Power:        0.000000 mW
   Cache Write Dynamic Power:       0.000000 mW
   Cache Total Power:               0.000000 mW

   Accelerator Power:               0.694497 mW
   Accelerator Power (SPM):         7.032833 mW
   Accelerator Power (Cache):       0.694497 mW

   ========= Area Analysis =======================
   FU Area:                         70212.562500 um^2 (0.070213 mm^2)
   Register Area:                   429.271088 um^2 (0.000429 mm^2)
   SPM Area:                        2177.365505 um^2 (0.002177 mm^2)
   Cache Area:                      0.000000 um^2 (0.000000 mm^2)

   Accelerator Area:                70641.835938 um^2 (0.070642 mm^2)
   Accelerator Area (SPM):          72819.201442 um^2 (0.072819 mm^2)
   Accelerator Area (Cache):        70641.835938 um^2 (0.070642 mm^2)

   ========= SPM Resizing  =======================
   SPM Optimized Leakage Power:     0.004248 mW
   SPM Opt Area:                    178.524902 um^2

14619059000: system.acctest.elem_matrix3_dma: SRC:0x00000000821c0200, DST:0x0000000024300020, LEN:65536
********************************************************************************
system.acctest.elem_matrix0.compute
   ========= Performance Analysis =============
   Setup Time:                      5.399086seconds
   Simulation Time:                 171.826909seconds
   System Clock:                    1.000000GHz
   Transistor Latency:              1ns
   Runtime:                         8316 cycles
   Runtime:                         8.316000 us
   Stalls:                          82 cycles
   Executed Nodes:                  8233 cycles

********************************************************************************
   ========= Performance Analysis =================
   Setup Time:                      5399085763.000000ns
   Simulation Time:                 171826908568.000000ns
   System Clock:                    1.000000GHz
   Transistor Latency:              0ns
   Runtime:                         8316 cycles
   Runtime:                         0.000001 seconds
   Stalls:                          82 cycles
       Load Only:                   0 cycles
       Store Only:                  77 cycles
       Compute Only:                0 cycles
       Compute & Store:             5 cycles
       Load & Store:                0 cycles
       Load & Compute:              0 cycles
       Load & Compute & Store:      0 cycles
   Executed Nodes:                  8233 cycles
       Load Only:                   0 cycles
       Store Only:                  11 cycles
       Compute Only:                1827 cycles
       Compute & Store:             3453 cycles
       Load & Store:                0 cycles
       Load & Compute:              774 cycles
       Load & Compute & Store:      2168 cycles

   ========= Runtime FU's ========= (Max | Avg) ===
   Counter FU's:                      32 | 0.061572
   Integer Add/Sub FU's:               0 | 0.000000
   Integer Mul/Div FU's:               0 | 0.000000
   Integer Shifter FU's:               0 | 0.000000
   Integer Bitwise FU's:               1 | 0.000120
   Floating Point Float Add/Sub:      80 | 0.302014
   Floating Point Double Add/Sub:      0 | 0.000000
   Floating Point Float Mul/Div:      35 | 0.056511
   Floating Point Double Mul/Div:      0 | 0.000000
   0 Cycle Compare FU's:              15 | 0.024828
   GEP Instruction FU's:              64 | 0.061568
   Type Conversion FU's:              66 | 0.120964

   ========= Static FU's ==========================
   Counter FU's:                    0
   Integer Add/Sub FU's:            0
   Integer Mul/Div FU's:            0
   Integer Shifter FU's:            0
   Integer Bitwise FU's:            0
   Floating Point Float Add/Sub:    0
   Floating Point Double Add/Sub:   0
   Floating Point Float Mul/Div:    0
   Floating Point Double Mul/Div:   0
   0 Cycle Compare FU's:            0
   GEP Instruction FU's:            0
   Type Conversion FU's:            0
   Other:                           0

   ========= Pipeline Register Usage =============
   Total Number of Registers:       5641
   Max Register Usage Per Cycle:    126
   Avg Register Usage Per Cycle:    27.706590
   Avg Register Size (Bytes):       5.993295

   ========= Memory Configuration =================
   Cache Bus Ports:                 0
   Shared Cache Size:               0kB
   Local Bus Ports:                 0
   Private SPM Size:                256kB
   Private Read Ports:              0
   Private Write Ports:             0
   Private Read Bus Width:          64
   Private Write Bus Width:         64
       Memory Reads:                0
       Memory Writes:               0
   ========= Power Analysis ======================
   FU Leakage Power:                1.265749 mW 
   FU Dynamic Power:                1.166708 mW 
   FU Total Power:                  2.432457 mW 

   Registers Leakage Power:          0.011908 mW 
   Registers Dynamic Power:          0.045645 mW 
       Register Reads (Bits):        230408
       Register Writes (Bits):       231961
   Registers Total Power:            0.057553 mW

   SPM Leakage Power:               0.104100 mW
   SPM Read Dynamic Power:          4.599549 mW
   SPM Write Dynamic Power:         2.880682 mW
   SPM Total Power:                 7.584331 mW

   Cache Leakage Power:             0.000000 mW
   Cache Read Dynamic Power:        0.000000 mW
   Cache Write Dynamic Power:       0.000000 mW
   Cache Total Power:               0.000000 mW

   Accelerator Power:               2.490010 mW
   Accelerator Power (SPM):         10.074342 mW
   Accelerator Power (Cache):       2.490010 mW

   ========= Area Analysis =======================
   FU Area:                         170559.593750 um^2 (0.170560 mm^2)
   Register Area:                   967.909180 um^2 (0.000968 mm^2)
   SPM Area:                        2177.365505 um^2 (0.002177 mm^2)
   Cache Area:                      0.000000 um^2 (0.000000 mm^2)

   Accelerator Area:                171527.500000 um^2 (0.171527 mm^2)
   Accelerator Area (SPM):          173704.865505 um^2 (0.173705 mm^2)
   Accelerator Area (Cache):        171527.500000 um^2 (0.171527 mm^2)

   ========= SPM Resizing  =======================
   SPM Optimized Leakage Power:     0.003887 mW
   SPM Opt Area:                    172.850411 um^2

14619721875: system.acctest.elem_matrix1_dma: Transfer completed in 12.136 us
********************************************************************************
system.acctest.elem_matrix2.compute
   ========= Performance Analysis =============
   Setup Time:                      7.755698seconds
   Simulation Time:                 204.834656seconds
   System Clock:                    1.000000GHz
   Transistor Latency:              1ns
   Runtime:                         10932 cycles
   Runtime:                         10.932000 us
   Stalls:                          1 cycles
   Executed Nodes:                  10930 cycles

********************************************************************************
   ========= Performance Analysis =================
   Setup Time:                      7755698120.000000ns
   Simulation Time:                 204834656342.000000ns
   System Clock:                    1.000000GHz
   Transistor Latency:              0ns
   Runtime:                         10932 cycles
   Runtime:                         0.000001 seconds
   Stalls:                          1 cycles
       Load Only:                   0 cycles
       Store Only:                  1 cycles
       Compute Only:                0 cycles
       Compute & Store:             0 cycles
       Load & Store:                0 cycles
       Load & Compute:              0 cycles
       Load & Compute & Store:      0 cycles
   Executed Nodes:                  10930 cycles
       Load Only:                   0 cycles
       Store Only:                  4 cycles
       Compute Only:                1 cycles
       Compute & Store:             21 cycles
       Load & Store:                0 cycles
       Load & Compute:              6 cycles
       Load & Compute & Store:      10898 cycles

   ========= Runtime FU's ========= (Max | Avg) ===
   Counter FU's:                      32 | 0.046838
   Integer Add/Sub FU's:               0 | 0.000000
   Integer Mul/Div FU's:               0 | 0.000000
   Integer Shifter FU's:               0 | 0.000000
   Integer Bitwise FU's:               1 | 0.000091
   Floating Point Float Add/Sub:       0 | 0.000000
   Floating Point Double Add/Sub:      0 | 0.000000
   Floating Point Float Mul/Div:      34 | 0.044252
   Floating Point Double Mul/Div:      0 | 0.000000
   0 Cycle Compare FU's:             102 | 0.046945
   GEP Instruction FU's:              96 | 0.046835
   Type Conversion FU's:               7 | 0.006782

   ========= Static FU's ==========================
   Counter FU's:                    0
   Integer Add/Sub FU's:            0
   Integer Mul/Div FU's:            0
   Integer Shifter FU's:            0
   Integer Bitwise FU's:            0
   Floating Point Float Add/Sub:    0
   Floating Point Double Add/Sub:   0
   Floating Point Float Mul/Div:    0
   Floating Point Double Mul/Div:   0
   0 Cycle Compare FU's:            0
   GEP Instruction FU's:            0
   Type Conversion FU's:            0
   Other:                           0

   ========= Pipeline Register Usage =============
   Total Number of Registers:       5641
   Max Register Usage Per Cycle:    137
   Avg Register Usage Per Cycle:    12.130992
   Avg Register Size (Bytes):       5.980606

   ========= Memory Configuration =================
   Cache Bus Ports:                 0
   Shared Cache Size:               0kB
   Local Bus Ports:                 0
   Private SPM Size:                256kB
   Private Read Ports:              0
   Private Write Ports:             0
   Private Read Bus Width:          64
   Private Write Bus Width:         64
       Memory Reads:                0
       Memory Writes:               0
   ========= Power Analysis ======================
   FU Leakage Power:                0.045377 mW 
   FU Dynamic Power:                0.142576 mW 
   FU Total Power:                  0.187953 mW 

   Registers Leakage Power:          0.005281 mW 
   Registers Dynamic Power:          0.015326 mW 
       Register Reads (Bits):        132616
       Register Writes (Bits):       133658
   Registers Total Power:            0.020607 mW

   SPM Leakage Power:               0.104100 mW
   SPM Read Dynamic Power:          2.785289 mW
   SPM Write Dynamic Power:         2.044305 mW
   SPM Total Power:                 4.933694 mW

   Cache Leakage Power:             0.000000 mW
   Cache Read Dynamic Power:        0.000000 mW
   Cache Write Dynamic Power:       0.000000 mW
   Cache Total Power:               0.000000 mW

   Accelerator Power:               0.208559 mW
   Accelerator Power (SPM):         5.142254 mW
   Accelerator Power (Cache):       0.208559 mW

   ========= Area Analysis =======================
   FU Area:                         5472.068359 um^2 (0.005472 mm^2)
   Register Area:                   429.271088 um^2 (0.000429 mm^2)
   SPM Area:                        2177.365505 um^2 (0.002177 mm^2)
   Cache Area:                      0.000000 um^2 (0.000000 mm^2)

   Accelerator Area:                5901.339355 um^2 (0.005901 mm^2)
   Accelerator Area (SPM):          8078.704860 um^2 (0.008079 mm^2)
   Accelerator Area (Cache):        5901.339355 um^2 (0.005901 mm^2)

   ========= SPM Resizing  =======================
   SPM Optimized Leakage Power:     0.004248 mW
   SPM Opt Area:                    178.524902 um^2

14629098750: system.acctest.elem_matrix0_dma: SRC:0x0000000082300380, DST:0x0000000024010020, LEN:65536
********************************************************************************
system.acctest.grayscale0.compute
   ========= Performance Analysis =============
   Setup Time:                      0.005308seconds
   Simulation Time:                 116.926490seconds
   System Clock:                    1.000000GHz
   Transistor Latency:              1ns
   Runtime:                         10263 cycles
   Runtime:                         10.263000 us
   Stalls:                          1 cycles
   Executed Nodes:                  10261 cycles

********************************************************************************
   ========= Performance Analysis =================
   Setup Time:                      5308040.000000ns
   Simulation Time:                 116926489615.000000ns
   System Clock:                    1.000000GHz
   Transistor Latency:              0ns
   Runtime:                         10263 cycles
   Runtime:                         0.000001 seconds
   Stalls:                          1 cycles
       Load Only:                   0 cycles
       Store Only:                  1 cycles
       Compute Only:                0 cycles
       Compute & Store:             0 cycles
       Load & Store:                0 cycles
       Load & Compute:              0 cycles
       Load & Compute & Store:      0 cycles
   Executed Nodes:                  10261 cycles
       Load Only:                   0 cycles
       Store Only:                  1 cycles
       Compute Only:                88 cycles
       Compute & Store:             344 cycles
       Load & Store:                0 cycles
       Load & Compute:              1981 cycles
       Load & Compute & Store:      7847 cycles

   ========= Runtime FU's ========= (Max | Avg) ===
   Counter FU's:                      24 | 0.199556
   Integer Add/Sub FU's:               0 | 0.000000
   Integer Mul/Div FU's:               8 | 0.199552
   Integer Shifter FU's:               0 | 0.000000
   Integer Bitwise FU's:               1 | 0.000097
   Floating Point Float Add/Sub:      49 | 0.114264
   Floating Point Double Add/Sub:      0 | 0.000000
   Floating Point Float Mul/Div:      42 | 0.114129
   Floating Point Double Mul/Div:      0 | 0.000000
   0 Cycle Compare FU's:               9 | 0.066626
   GEP Instruction FU's:              36 | 0.177452
   Type Conversion FU's:              76 | 0.401969

   ========= Static FU's ==========================
   Counter FU's:                    0
   Integer Add/Sub FU's:            0
   Integer Mul/Div FU's:            0
   Integer Shifter FU's:            0
   Integer Bitwise FU's:            0
   Floating Point Float Add/Sub:    0
   Floating Point Double Add/Sub:   0
   Floating Point Float Mul/Div:    0
   Floating Point Double Mul/Div:   0
   0 Cycle Compare FU's:            0
   GEP Instruction FU's:            0
   Type Conversion FU's:            0
   Other:                           0

   ========= Pipeline Register Usage =============
   Total Number of Registers:       235
   Max Register Usage Per Cycle:    90
   Avg Register Usage Per Cycle:    33.924291
   Avg Register Size (Bytes):       5.841147

   ========= Memory Configuration =================
   Cache Bus Ports:                 0
   Shared Cache Size:               0kB
   Local Bus Ports:                 0
   Private SPM Size:                176kB
   Private Read Ports:              0
   Private Write Ports:             0
   Private Read Bus Width:          64
   Private Write Bus Width:         64
       Memory Reads:                0
       Memory Writes:               0
   ========= Power Analysis ======================
   FU Leakage Power:                1.178269 mW 
   FU Dynamic Power:                0.617392 mW 
   FU Total Power:                  1.795662 mW 

   Registers Leakage Power:          0.014185 mW 
   Registers Dynamic Power:          0.101057 mW 
       Register Reads (Bits):        348165
       Register Writes (Bits):       348168
   Registers Total Power:            0.115242 mW

   SPM Leakage Power:               0.089881 mW
   SPM Read Dynamic Power:          6.997296 mW
   SPM Write Dynamic Power:         2.062375 mW
   SPM Total Power:                 9.149552 mW

   Cache Leakage Power:             0.000000 mW
   Cache Read Dynamic Power:        0.000000 mW
   Cache Write Dynamic Power:       0.000000 mW
   Cache Total Power:               0.000000 mW

   Accelerator Power:               1.910904 mW
   Accelerator Power (SPM):         11.060456 mW
   Accelerator Power (Cache):       1.910904 mW

   ========= Area Analysis =======================
   FU Area:                         143348.187500 um^2 (0.143348 mm^2)
   Register Area:                   1152.968140 um^2 (0.001153 mm^2)
   SPM Area:                        3573.642862 um^2 (0.003574 mm^2)
   Cache Area:                      0.000000 um^2 (0.000000 mm^2)

   Accelerator Area:                144501.156250 um^2 (0.144501 mm^2)
   Accelerator Area (SPM):          148074.799112 um^2 (0.148075 mm^2)
   Accelerator Area (Cache):        144501.156250 um^2 (0.144501 mm^2)

   ========= SPM Resizing  =======================
   SPM Optimized Leakage Power:     0.003633 mW
   SPM Opt Area:                    364.024374 um^2

14631933000: system.acctest.elem_matrix3_dma: Transfer completed in 12.874 us
14639036625: system.acctest.elem_matrix2_dma: SRC:0x00000000821d0200, DST:0x0000000024200020, LEN:65536
********************************************************************************
system.acctest.elem_matrix1.compute
   ========= Performance Analysis =============
   Setup Time:                      7.868225seconds
   Simulation Time:                 141.367155seconds
   System Clock:                    1.000000GHz
   Transistor Latency:              1ns
   Runtime:                         10932 cycles
   Runtime:                         10.932000 us
   Stalls:                          0 cycles
   Executed Nodes:                  10931 cycles

********************************************************************************
   ========= Performance Analysis =================
   Setup Time:                      7868224844.000000ns
   Simulation Time:                 141367155254.000000ns
   System Clock:                    1.000000GHz
   Transistor Latency:              0ns
   Runtime:                         10932 cycles
   Runtime:                         0.000001 seconds
   Stalls:                          0 cycles
       Load Only:                   0 cycles
       Store Only:                  0 cycles
       Compute Only:                0 cycles
       Compute & Store:             0 cycles
       Load & Store:                0 cycles
       Load & Compute:              0 cycles
       Load & Compute & Store:      0 cycles
   Executed Nodes:                  10931 cycles
       Load Only:                   0 cycles
       Store Only:                  5 cycles
       Compute Only:                1 cycles
       Compute & Store:             21 cycles
       Load & Store:                0 cycles
       Load & Compute:              7 cycles
       Load & Compute & Store:      10897 cycles

   ========= Runtime FU's ========= (Max | Avg) ===
   Counter FU's:                      32 | 0.046838
   Integer Add/Sub FU's:               0 | 0.000000
   Integer Mul/Div FU's:               0 | 0.000000
   Integer Shifter FU's:               0 | 0.000000
   Integer Bitwise FU's:               1 | 0.000091
   Floating Point Float Add/Sub:      34 | 0.044252
   Floating Point Double Add/Sub:      0 | 0.000000
   Floating Point Float Mul/Div:       0 | 0.000000
   Floating Point Double Mul/Div:      0 | 0.000000
   0 Cycle Compare FU's:             102 | 0.046974
   GEP Instruction FU's:              96 | 0.046835
   Type Conversion FU's:               7 | 0.006782

   ========= Static FU's ==========================
   Counter FU's:                    0
   Integer Add/Sub FU's:            0
   Integer Mul/Div FU's:            0
   Integer Shifter FU's:            0
   Integer Bitwise FU's:            0
   Floating Point Float Add/Sub:    0
   Floating Point Double Add/Sub:   0
   Floating Point Float Mul/Div:    0
   Floating Point Double Mul/Div:   0
   0 Cycle Compare FU's:            0
   GEP Instruction FU's:            0
   Type Conversion FU's:            0
   Other:                           0

   ========= Pipeline Register Usage =============
   Total Number of Registers:       5641
   Max Register Usage Per Cycle:    138
   Avg Register Usage Per Cycle:    12.130992
   Avg Register Size (Bytes):       5.980606

   ========= Memory Configuration =================
   Cache Bus Ports:                 0
   Shared Cache Size:               0kB
   Local Bus Ports:                 0
   Private SPM Size:                256kB
   Private Read Ports:              0
   Private Write Ports:             0
   Private Read Bus Width:          64
   Private Write Bus Width:         64
       Memory Reads:                0
       Memory Writes:               0
   ========= Power Analysis ======================
   FU Leakage Power:                0.519269 mW 
   FU Dynamic Power:                0.154621 mW 
   FU Total Power:                  0.673890 mW 

   Registers Leakage Power:          0.005281 mW 
   Registers Dynamic Power:          0.015326 mW 
       Register Reads (Bits):        132616
       Register Writes (Bits):       133658
   Registers Total Power:            0.020607 mW

   SPM Leakage Power:               0.104100 mW
   SPM Read Dynamic Power:          3.776796 mW
   SPM Write Dynamic Power:         2.457440 mW
   SPM Total Power:                 6.338336 mW

   Cache Leakage Power:             0.000000 mW
   Cache Read Dynamic Power:        0.000000 mW
   Cache Write Dynamic Power:       0.000000 mW
   Cache Total Power:               0.000000 mW

   Accelerator Power:               0.694497 mW
   Accelerator Power (SPM):         7.032833 mW
   Accelerator Power (Cache):       0.694497 mW

   ========= Area Analysis =======================
   FU Area:                         70212.562500 um^2 (0.070213 mm^2)
   Register Area:                   429.271088 um^2 (0.000429 mm^2)
   SPM Area:                        2177.365505 um^2 (0.002177 mm^2)
   Cache Area:                      0.000000 um^2 (0.000000 mm^2)

   Accelerator Area:                70641.835938 um^2 (0.070642 mm^2)
   Accelerator Area (SPM):          72819.201442 um^2 (0.072819 mm^2)
   Accelerator Area (Cache):        70641.835938 um^2 (0.070642 mm^2)

   ========= SPM Resizing  =======================
   SPM Optimized Leakage Power:     0.004248 mW
   SPM Opt Area:                    178.524902 um^2

14641671750: system.acctest.elem_matrix0_dma: Transfer completed in 12.573 us
14649066000: system.acctest.grayscale0_dma: SRC:0x000000002500c020, DST:0x0000000082068dc0, LEN:65536
14650592000: system.acctest.convolution0_dma: SRC:0x000000002500c020, DST:0x0000000022000020, LEN:65536
********************************************************************************
system.acctest.elem_matrix3.compute
   ========= Performance Analysis =============
   Setup Time:                      7.361658seconds
   Simulation Time:                 124.700321seconds
   System Clock:                    1.000000GHz
   Transistor Latency:              1ns
   Runtime:                         10932 cycles
   Runtime:                         10.932000 us
   Stalls:                          1 cycles
   Executed Nodes:                  10930 cycles

********************************************************************************
   ========= Performance Analysis =================
   Setup Time:                      7361658356.000000ns
   Simulation Time:                 124700321085.000000ns
   System Clock:                    1.000000GHz
   Transistor Latency:              0ns
   Runtime:                         10932 cycles
   Runtime:                         0.000001 seconds
   Stalls:                          1 cycles
       Load Only:                   0 cycles
       Store Only:                  1 cycles
       Compute Only:                0 cycles
       Compute & Store:             0 cycles
       Load & Store:                0 cycles
       Load & Compute:              0 cycles
       Load & Compute & Store:      0 cycles
   Executed Nodes:                  10930 cycles
       Load Only:                   0 cycles
       Store Only:                  4 cycles
       Compute Only:                1 cycles
       Compute & Store:             21 cycles
       Load & Store:                0 cycles
       Load & Compute:              6 cycles
       Load & Compute & Store:      10898 cycles

   ========= Runtime FU's ========= (Max | Avg) ===
   Counter FU's:                      32 | 0.046838
   Integer Add/Sub FU's:               0 | 0.000000
   Integer Mul/Div FU's:               0 | 0.000000
   Integer Shifter FU's:               0 | 0.000000
   Integer Bitwise FU's:               1 | 0.000091
   Floating Point Float Add/Sub:       0 | 0.000000
   Floating Point Double Add/Sub:      0 | 0.000000
   Floating Point Float Mul/Div:      34 | 0.044252
   Floating Point Double Mul/Div:      0 | 0.000000
   0 Cycle Compare FU's:             102 | 0.046945
   GEP Instruction FU's:              96 | 0.046835
   Type Conversion FU's:               7 | 0.006782

   ========= Static FU's ==========================
   Counter FU's:                    0
   Integer Add/Sub FU's:            0
   Integer Mul/Div FU's:            0
   Integer Shifter FU's:            0
   Integer Bitwise FU's:            0
   Floating Point Float Add/Sub:    0
   Floating Point Double Add/Sub:   0
   Floating Point Float Mul/Div:    0
   Floating Point Double Mul/Div:   0
   0 Cycle Compare FU's:            0
   GEP Instruction FU's:            0
   Type Conversion FU's:            0
   Other:                           0

   ========= Pipeline Register Usage =============
   Total Number of Registers:       5641
   Max Register Usage Per Cycle:    137
   Avg Register Usage Per Cycle:    12.130992
   Avg Register Size (Bytes):       5.980606

   ========= Memory Configuration =================
   Cache Bus Ports:                 0
   Shared Cache Size:               0kB
   Local Bus Ports:                 0
   Private SPM Size:                256kB
   Private Read Ports:              0
   Private Write Ports:             0
   Private Read Bus Width:          64
   Private Write Bus Width:         64
       Memory Reads:                0
       Memory Writes:               0
   ========= Power Analysis ======================
   FU Leakage Power:                0.045377 mW 
   FU Dynamic Power:                0.142576 mW 
   FU Total Power:                  0.187953 mW 

   Registers Leakage Power:          0.005281 mW 
   Registers Dynamic Power:          0.015326 mW 
       Register Reads (Bits):        132616
       Register Writes (Bits):       133658
   Registers Total Power:            0.020607 mW

   SPM Leakage Power:               0.104100 mW
   SPM Read Dynamic Power:          2.785289 mW
   SPM Write Dynamic Power:         2.044305 mW
   SPM Total Power:                 4.933694 mW

   Cache Leakage Power:             0.000000 mW
   Cache Read Dynamic Power:        0.000000 mW
   Cache Write Dynamic Power:       0.000000 mW
   Cache Total Power:               0.000000 mW

   Accelerator Power:               0.208559 mW
   Accelerator Power (SPM):         5.142254 mW
   Accelerator Power (Cache):       0.208559 mW

   ========= Area Analysis =======================
   FU Area:                         5472.068359 um^2 (0.005472 mm^2)
   Register Area:                   429.271088 um^2 (0.000429 mm^2)
   SPM Area:                        2177.365505 um^2 (0.002177 mm^2)
   Cache Area:                      0.000000 um^2 (0.000000 mm^2)

   Accelerator Area:                5901.339355 um^2 (0.005901 mm^2)
   Accelerator Area (SPM):          8078.704860 um^2 (0.008079 mm^2)
   Accelerator Area (Cache):        5901.339355 um^2 (0.005901 mm^2)

   ========= SPM Resizing  =======================
   SPM Optimized Leakage Power:     0.004248 mW
   SPM Opt Area:                    178.524902 um^2

14657528625: system.acctest.elem_matrix2_dma: Transfer completed in 18.492 us
14659657000: system.acctest.grayscale0_dma: Transfer completed in 10.591 us
********************************************************************************
system.acctest.elem_matrix1.compute
   ========= Performance Analysis =============
   Setup Time:                      4.358566seconds
   Simulation Time:                 182.010477seconds
   System Clock:                    1.000000GHz
   Transistor Latency:              1ns
   Runtime:                         8316 cycles
   Runtime:                         8.316000 us
   Stalls:                          82 cycles
   Executed Nodes:                  8233 cycles

********************************************************************************
   ========= Performance Analysis =================
   Setup Time:                      4358565958.000000ns
   Simulation Time:                 182010477338.000000ns
   System Clock:                    1.000000GHz
   Transistor Latency:              0ns
   Runtime:                         8316 cycles
   Runtime:                         0.000001 seconds
   Stalls:                          82 cycles
       Load Only:                   0 cycles
       Store Only:                  77 cycles
       Compute Only:                0 cycles
       Compute & Store:             5 cycles
       Load & Store:                0 cycles
       Load & Compute:              0 cycles
       Load & Compute & Store:      0 cycles
   Executed Nodes:                  8233 cycles
       Load Only:                   0 cycles
       Store Only:                  11 cycles
       Compute Only:                1827 cycles
       Compute & Store:             3453 cycles
       Load & Store:                0 cycles
       Load & Compute:              774 cycles
       Load & Compute & Store:      2168 cycles

   ========= Runtime FU's ========= (Max | Avg) ===
   Counter FU's:                      32 | 0.061572
   Integer Add/Sub FU's:               0 | 0.000000
   Integer Mul/Div FU's:               0 | 0.000000
   Integer Shifter FU's:               0 | 0.000000
   Integer Bitwise FU's:               1 | 0.000120
   Floating Point Float Add/Sub:      80 | 0.302014
   Floating Point Double Add/Sub:      0 | 0.000000
   Floating Point Float Mul/Div:      35 | 0.056511
   Floating Point Double Mul/Div:      0 | 0.000000
   0 Cycle Compare FU's:              15 | 0.024828
   GEP Instruction FU's:              64 | 0.061568
   Type Conversion FU's:              66 | 0.120964

   ========= Static FU's ==========================
   Counter FU's:                    0
   Integer Add/Sub FU's:            0
   Integer Mul/Div FU's:            0
   Integer Shifter FU's:            0
   Integer Bitwise FU's:            0
   Floating Point Float Add/Sub:    0
   Floating Point Double Add/Sub:   0
   Floating Point Float Mul/Div:    0
   Floating Point Double Mul/Div:   0
   0 Cycle Compare FU's:            0
   GEP Instruction FU's:            0
   Type Conversion FU's:            0
   Other:                           0

   ========= Pipeline Register Usage =============
   Total Number of Registers:       5641
   Max Register Usage Per Cycle:    126
   Avg Register Usage Per Cycle:    27.706590
   Avg Register Size (Bytes):       5.993295

   ========= Memory Configuration =================
   Cache Bus Ports:                 0
   Shared Cache Size:               0kB
   Local Bus Ports:                 0
   Private SPM Size:                256kB
   Private Read Ports:              0
   Private Write Ports:             0
   Private Read Bus Width:          64
   Private Write Bus Width:         64
       Memory Reads:                0
       Memory Writes:               0
   ========= Power Analysis ======================
   FU Leakage Power:                1.265749 mW 
   FU Dynamic Power:                1.166708 mW 
   FU Total Power:                  2.432457 mW 

   Registers Leakage Power:          0.011908 mW 
   Registers Dynamic Power:          0.045645 mW 
       Register Reads (Bits):        230408
       Register Writes (Bits):       231961
   Registers Total Power:            0.057553 mW

   SPM Leakage Power:               0.104100 mW
   SPM Read Dynamic Power:          4.599549 mW
   SPM Write Dynamic Power:         2.880682 mW
   SPM Total Power:                 7.584331 mW

   Cache Leakage Power:             0.000000 mW
   Cache Read Dynamic Power:        0.000000 mW
   Cache Write Dynamic Power:       0.000000 mW
   Cache Total Power:               0.000000 mW

   Accelerator Power:               2.490010 mW
   Accelerator Power (SPM):         10.074342 mW
   Accelerator Power (Cache):       2.490010 mW

   ========= Area Analysis =======================
   FU Area:                         170559.593750 um^2 (0.170560 mm^2)
   Register Area:                   967.909180 um^2 (0.000968 mm^2)
   SPM Area:                        2177.365505 um^2 (0.002177 mm^2)
   Cache Area:                      0.000000 um^2 (0.000000 mm^2)

   Accelerator Area:                171527.500000 um^2 (0.171527 mm^2)
   Accelerator Area (SPM):          173704.865505 um^2 (0.173705 mm^2)
   Accelerator Area (Cache):        171527.500000 um^2 (0.171527 mm^2)

   ========= SPM Resizing  =======================
   SPM Optimized Leakage Power:     0.003887 mW
   SPM Opt Area:                    172.850411 um^2

********************************************************************************
system.acctest.elem_matrix0.compute
   ========= Performance Analysis =============
   Setup Time:                      7.294421seconds
   Simulation Time:                 220.969708seconds
   System Clock:                    1.000000GHz
   Transistor Latency:              1ns
   Runtime:                         10932 cycles
   Runtime:                         10.932000 us
   Stalls:                          1 cycles
   Executed Nodes:                  10930 cycles

[...]
   GEP Instruction FU's:               4 | 0.132683
   Type Conversion FU's:               7 | 0.186618

   ========= Static FU's ==========================
   Counter FU's:                    0
   Integer Add/Sub FU's:            0
   Integer Mul/Div FU's:            0
   Integer Shifter FU's:            0
   Integer Bitwise FU's:            0
   Floating Point Float Add/Sub:    0
   Floating Point Double Add/Sub:   0
   Floating Point Float Mul/Div:    0
   Floating Point Double Mul/Div:   0
   0 Cycle Compare FU's:            0
   GEP Instruction FU's:            0
   Type Conversion FU's:            0
   Other:                           0

   ========= Pipeline Register Usage =============
   Total Number of Registers:       1702
   Max Register Usage Per Cycle:    20
   Avg Register Usage Per Cycle:    6.348199
   Avg Register Size (Bytes):       5.569148

   ========= Memory Configuration =================
   Cache Bus Ports:                 0
   Shared Cache Size:               0kB
   Local Bus Ports:                 0
   Private SPM Size:                192kB
   Private Read Ports:              0
   Private Write Ports:             0
   Private Read Bus Width:          64
   Private Write Bus Width:         64
       Memory Reads:                0
       Memory Writes:               0
   ========= Power Analysis ======================
   FU Leakage Power:                0.196912 mW 
   FU Dynamic Power:                2743.054199 mW 
   FU Total Power:                  2743.251221 mW 

   Registers Leakage Power:          0.002459 mW 
   Registers Dynamic Power:          75.251152 mW 
       Register Reads (Bits):        9811808
       Register Writes (Bits):       10049727
   Registers Total Power:            75.253609 mW

   SPM Leakage Power:               0.078311 mW
   SPM Read Dynamic Power:          56.508118 mW
   SPM Write Dynamic Power:         10.084569 mW
   SPM Total Power:                 66.670998 mW

   Cache Leakage Power:             0.000000 mW
   Cache Read Dynamic Power:        0.000000 mW
   Cache Write Dynamic Power:       0.000000 mW
   Cache Total Power:               0.000000 mW

   Accelerator Power:               2818.504883 mW
   Accelerator Power (SPM):         2885.175881 mW
   Accelerator Power (Cache):       2818.504883 mW

   ========= Area Analysis =======================
   FU Area:                         22931.867188 um^2 (0.022932 mm^2)
   Register Area:                   199.868912 um^2 (0.000200 mm^2)
   SPM Area:                        1748.188735 um^2 (0.001748 mm^2)
   Cache Area:                      0.000000 um^2 (0.000000 mm^2)

   Accelerator Area:                23131.736328 um^2 (0.023132 mm^2)
   Accelerator Area (SPM):          24879.925063 um^2 (0.024880 mm^2)
   Accelerator Area (Cache):        23131.736328 um^2 (0.023132 mm^2)

   ========= SPM Resizing  =======================
   SPM Optimized Leakage Power:     0.002053 mW
   SPM Opt Area:                    145.024971 um^2

58390085875: system.acctest.elem_matrix0_dma: SRC:0x000000008210c580, DST:0x0000000024000020, LEN:65536
58402054875: system.acctest.elem_matrix0_dma: Transfer completed in 11.969 us
58402971625: system.acctest.elem_matrix0_dma: SRC:0x0000000022020020, DST:0x0000000024010020, LEN:65536
58413232625: system.acctest.elem_matrix0_dma: Transfer completed in 10.261 us
********************************************************************************
system.acctest.elem_matrix0.compute
   ========= Performance Analysis =============
   Setup Time:                      3.835182seconds
   Simulation Time:                 87.154921seconds
   System Clock:                    1.000000GHz
   Transistor Latency:              1ns
   Runtime:                         10932 cycles
   Runtime:                         10.932000 us
   Stalls:                          1 cycles
   Executed Nodes:                  10930 cycles

********************************************************************************
   ========= Performance Analysis =================
   Setup Time:                      3835181913.000000ns
   Simulation Time:                 87154921173.000000ns
   System Clock:                    1.000000GHz
   Transistor Latency:              0ns
   Runtime:                         10932 cycles
   Runtime:                         0.000001 seconds
   Stalls:                          1 cycles
       Load Only:                   0 cycles
       Store Only:                  1 cycles
       Compute Only:                0 cycles
       Compute & Store:             0 cycles
       Load & Store:                0 cycles
       Load & Compute:              0 cycles
       Load & Compute & Store:      0 cycles
   Executed Nodes:                  10930 cycles
       Load Only:                   0 cycles
       Store Only:                  4 cycles
       Compute Only:                1 cycles
       Compute & Store:             21 cycles
       Load & Store:                0 cycles
       Load & Compute:              6 cycles
       Load & Compute & Store:      10898 cycles

   ========= Runtime FU's ========= (Max | Avg) ===
   Counter FU's:                      32 | 0.046838
   Integer Add/Sub FU's:               0 | 0.000000
   Integer Mul/Div FU's:               0 | 0.000000
   Integer Shifter FU's:               0 | 0.000000
   Integer Bitwise FU's:               1 | 0.000091
   Floating Point Float Add/Sub:       0 | 0.000000
   Floating Point Double Add/Sub:      0 | 0.000000
   Floating Point Float Mul/Div:      34 | 0.044252
   Floating Point Double Mul/Div:      0 | 0.000000
   0 Cycle Compare FU's:             102 | 0.046945
   GEP Instruction FU's:              96 | 0.046835
   Type Conversion FU's:               7 | 0.006782

   ========= Static FU's ==========================
   Counter FU's:                    0
   Integer Add/Sub FU's:            0
   Integer Mul/Div FU's:            0
   Integer Shifter FU's:            0
   Integer Bitwise FU's:            0
   Floating Point Float Add/Sub:    0
   Floating Point Double Add/Sub:   0
   Floating Point Float Mul/Div:    0
   Floating Point Double Mul/Div:   0
   0 Cycle Compare FU's:            0
   GEP Instruction FU's:            0
   Type Conversion FU's:            0
   Other:                           0

   ========= Pipeline Register Usage =============
   Total Number of Registers:       5641
   Max Register Usage Per Cycle:    137
   Avg Register Usage Per Cycle:    12.130992
   Avg Register Size (Bytes):       5.980606

   ========= Memory Configuration =================
   Cache Bus Ports:                 0
   Shared Cache Size:               0kB
   Local Bus Ports:                 0
   Private SPM Size:                256kB
   Private Read Ports:              0
   Private Write Ports:             0
   Private Read Bus Width:          64
   Private Write Bus Width:         64
       Memory Reads:                0
       Memory Writes:               0
   ========= Power Analysis ======================
   FU Leakage Power:                0.045377 mW 
   FU Dynamic Power:                0.142576 mW 
   FU Total Power:                  0.187953 mW 

   Registers Leakage Power:          0.005281 mW 
   Registers Dynamic Power:          0.015326 mW 
       Register Reads (Bits):        132616
       Register Writes (Bits):       133658
   Registers Total Power:            0.020607 mW

   SPM Leakage Power:               0.104100 mW
   SPM Read Dynamic Power:          27.411125 mW
   SPM Write Dynamic Power:         20.934895 mW
   SPM Total Power:                 48.450120 mW

   Cache Leakage Power:             0.000000 mW
   Cache Read Dynamic Power:        0.000000 mW
   Cache Write Dynamic Power:       0.000000 mW
   Cache Total Power:               0.000000 mW

   Accelerator Power:               0.208559 mW
   Accelerator Power (SPM):         48.658680 mW
   Accelerator Power (Cache):       0.208559 mW

   ========= Area Analysis =======================
   FU Area:                         5472.068359 um^2 (0.005472 mm^2)
   Register Area:                   429.271088 um^2 (0.000429 mm^2)
   SPM Area:                        2177.365505 um^2 (0.002177 mm^2)
   Cache Area:                      0.000000 um^2 (0.000000 mm^2)

   Accelerator Area:                5901.339355 um^2 (0.005901 mm^2)
   Accelerator Area (SPM):          8078.704860 um^2 (0.008079 mm^2)
   Accelerator Area (Cache):        5901.339355 um^2 (0.005901 mm^2)

   ========= SPM Resizing  =======================
   SPM Optimized Leakage Power:     0.004248 mW
   SPM Opt Area:                    178.524902 um^2

58432572375: system.acctest.elem_matrix0_dma: SRC:0x0000000024020020, DST:0x000000008210c580, LEN:65536
58438859375: system.acctest.elem_matrix0_dma: Transfer completed in 6.287 us
********************************************************************************
system.acctest.convolution1.compute
   ========= Performance Analysis =============
   Setup Time:                      0.337747seconds
   Simulation Time:                 586.256425seconds
   System Clock:                    1.000000GHz
   Transistor Latency:              1ns
   Runtime:                         1545605 cycles
   Runtime:                         1545.605000 us
   Stalls:                          0 cycles
   Executed Nodes:                  1545604 cycles

********************************************************************************
   ========= Performance Analysis =================
   Setup Time:                      337747294.000000ns
   Simulation Time:                 586256425457.000000ns
   System Clock:                    1.000000GHz
   Transistor Latency:              0ns
   Runtime:                         1545605 cycles
   Runtime:                         0.000155 seconds
   Stalls:                          0 cycles
       Load Only:                   0 cycles
       Store Only:                  0 cycles
       Compute Only:                0 cycles
       Compute & Store:             0 cycles
       Load & Store:                0 cycles
       Load & Compute:              0 cycles
       Load & Compute & Store:      0 cycles
   Executed Nodes:                  1545604 cycles
       Load Only:                   0 cycles
       Store Only:                  0 cycles
       Compute Only:                1127275 cycles
       Compute & Store:             16374 cycles
       Load & Store:                0 cycles
       Load & Compute:              401945 cycles
       Load & Compute & Store:      10 cycles

   ========= Runtime FU's ========= (Max | Avg) ===
   Counter FU's:                       3 | 0.112298
   Integer Add/Sub FU's:               4 | 0.211564
   Integer Mul/Div FU's:               1 | 0.052505
   Integer Shifter FU's:              10 | 0.005268
   Integer Bitwise FU's:               2 | 0.184266
   Floating Point Float Add/Sub:       5 | 0.208019
   Floating Point Double Add/Sub:      0 | 0.000000
   Floating Point Float Mul/Div:       4 | 0.065059
   Floating Point Double Mul/Div:      0 | 0.000000
   0 Cycle Compare FU's:              40 | 0.145953
   GEP Instruction FU's:               4 | 0.132683
   Type Conversion FU's:               7 | 0.186618

   ========= Static FU's ==========================
   Counter FU's:                    0
   Integer Add/Sub FU's:            0
   Integer Mul/Div FU's:            0
   Integer Shifter FU's:            0
   Integer Bitwise FU's:            0
   Floating Point Float Add/Sub:    0
   Floating Point Double Add/Sub:   0
   Floating Point Float Mul/Div:    0
   Floating Point Double Mul/Div:   0
   0 Cycle Compare FU's:            0
   GEP Instruction FU's:            0
   Type Conversion FU's:            0
   Other:                           0

   ========= Pipeline Register Usage =============
   Total Number of Registers:       1702
   Max Register Usage Per Cycle:    20
   Avg Register Usage Per Cycle:    6.348199
   Avg Register Size (Bytes):       5.569148

   ========= Memory Configuration =================
   Cache Bus Ports:                 0
   Shared Cache Size:               0kB
   Local Bus Ports:                 0
   Private SPM Size:                192kB
   Private Read Ports:              0
   Private Write Ports:             0
   Private Read Bus Width:          64
   Private Write Bus Width:         64
       Memory Reads:                0
       Memory Writes:               0
   ========= Power Analysis ======================
   FU Leakage Power:                0.196912 mW 
   FU Dynamic Power:                2743.231445 mW 
   FU Total Power:                  2743.428467 mW 

   Registers Leakage Power:          0.002459 mW 
   Registers Dynamic Power:          75.251152 mW 
       Register Reads (Bits):        9811808
       Register Writes (Bits):       10049727
   Registers Total Power:            75.253609 mW

   SPM Leakage Power:               0.078311 mW
   SPM Read Dynamic Power:          56.508118 mW
   SPM Write Dynamic Power:         10.084569 mW
   SPM Total Power:                 66.670998 mW

   Cache Leakage Power:             0.000000 mW
   Cache Read Dynamic Power:        0.000000 mW
   Cache Write Dynamic Power:       0.000000 mW
   Cache Total Power:               0.000000 mW

   Accelerator Power:               2818.682129 mW
   Accelerator Power (SPM):         2885.353127 mW
   Accelerator Power (Cache):       2818.682129 mW

   ========= Area Analysis =======================
   FU Area:                         22931.867188 um^2 (0.022932 mm^2)
   Register Area:                   199.868912 um^2 (0.000200 mm^2)
   SPM Area:                        1748.188735 um^2 (0.001748 mm^2)
   Cache Area:                      0.000000 um^2 (0.000000 mm^2)

   Accelerator Area:                23131.736328 um^2 (0.023132 mm^2)
   Accelerator Area (SPM):          24879.925063 um^2 (0.024880 mm^2)
   Accelerator Area (Cache):        23131.736328 um^2 (0.023132 mm^2)

   ========= SPM Resizing  =======================
   SPM Optimized Leakage Power:     0.002053 mW
   SPM Opt Area:                    145.024971 um^2

58497480875: system.acctest.elem_matrix1_dma: SRC:0x000000008216e3c0, DST:0x0000000024100020, LEN:65536
58509439875: system.acctest.elem_matrix1_dma: Transfer completed in 11.959 us
58510346625: system.acctest.elem_matrix1_dma: SRC:0x0000000022110020, DST:0x0000000024110020, LEN:65536
58520607625: system.acctest.elem_matrix1_dma: Transfer completed in 10.261 us
********************************************************************************
system.acctest.elem_matrix1.compute
   ========= Performance Analysis =============
   Setup Time:                      5.158445seconds
   Simulation Time:                 81.934486seconds
   System Clock:                    1.000000GHz
   Transistor Latency:              1ns
   Runtime:                         10932 cycles
   Runtime:                         10.932000 us
   Stalls:                          1 cycles
   Executed Nodes:                  10930 cycles

********************************************************************************
   ========= Performance Analysis =================
   Setup Time:                      5158444523.000000ns
   Simulation Time:                 81934486142.000000ns
   System Clock:                    1.000000GHz
   Transistor Latency:              0ns
   Runtime:                         10932 cycles
   Runtime:                         0.000001 seconds
   Stalls:                          1 cycles
       Load Only:                   0 cycles
       Store Only:                  1 cycles
       Compute Only:                0 cycles
       Compute & Store:             0 cycles
       Load & Store:                0 cycles
       Load & Compute:              0 cycles
       Load & Compute & Store:      0 cycles
   Executed Nodes:                  10930 cycles
       Load Only:                   0 cycles
       Store Only:                  4 cycles
       Compute Only:                1 cycles
       Compute & Store:             21 cycles
       Load & Store:                0 cycles
       Load & Compute:              6 cycles
       Load & Compute & Store:      10898 cycles

   ========= Runtime FU's ========= (Max | Avg) ===
   Counter FU's:                      32 | 0.046838
   Integer Add/Sub FU's:               0 | 0.000000
   Integer Mul/Div FU's:               0 | 0.000000
   Integer Shifter FU's:               0 | 0.000000
   Integer Bitwise FU's:               1 | 0.000091
   Floating Point Float Add/Sub:       0 | 0.000000
   Floating Point Double Add/Sub:      0 | 0.000000
   Floating Point Float Mul/Div:      34 | 0.044252
   Floating Point Double Mul/Div:      0 | 0.000000
   0 Cycle Compare FU's:             102 | 0.046945
   GEP Instruction FU's:              96 | 0.046835
   Type Conversion FU's:               7 | 0.006782

   ========= Static FU's ==========================
   Counter FU's:                    0
   Integer Add/Sub FU's:            0
   Integer Mul/Div FU's:            0
   Integer Shifter FU's:            0
   Integer Bitwise FU's:            0
   Floating Point Float Add/Sub:    0
   Floating Point Double Add/Sub:   0
   Floating Point Float Mul/Div:    0
   Floating Point Double Mul/Div:   0
   0 Cycle Compare FU's:            0
   GEP Instruction FU's:            0
   Type Conversion FU's:            0
   Other:                           0

   ========= Pipeline Register Usage =============
   Total Number of Registers:       5641
   Max Register Usage Per Cycle:    137
   Avg Register Usage Per Cycle:    12.130992
   Avg Register Size (Bytes):       5.980606

   ========= Memory Configuration =================
   Cache Bus Ports:                 0
   Shared Cache Size:               0kB
   Local Bus Ports:                 0
   Private SPM Size:                256kB
   Private Read Ports:              0
   Private Write Ports:             0
   Private Read Bus Width:          64
   Private Write Bus Width:         64
       Memory Reads:                0
       Memory Writes:               0
   ========= Power Analysis ======================
   FU Leakage Power:                0.045377 mW 
   FU Dynamic Power:                0.142576 mW 
   FU Total Power:                  0.187953 mW 

   Registers Leakage Power:          0.005281 mW 
   Registers Dynamic Power:          0.015326 mW 
       Register Reads (Bits):        132616
       Register Writes (Bits):       133658
   Registers Total Power:            0.020607 mW

   SPM Leakage Power:               0.104100 mW
   SPM Read Dynamic Power:          24.781646 mW
   SPM Write Dynamic Power:         19.991294 mW
   SPM Total Power:                 44.877041 mW

   Cache Leakage Power:             0.000000 mW
   Cache Read Dynamic Power:        0.000000 mW
   Cache Write Dynamic Power:       0.000000 mW
   Cache Total Power:               0.000000 mW

   Accelerator Power:               0.208559 mW
   Accelerator Power (SPM):         45.085600 mW
   Accelerator Power (Cache):       0.208559 mW

   ========= Area Analysis =======================
   FU Area:                         5472.068359 um^2 (0.005472 mm^2)
   Register Area:                   429.271088 um^2 (0.000429 mm^2)
   SPM Area:                        2177.365505 um^2 (0.002177 mm^2)
   Cache Area:                      0.000000 um^2 (0.000000 mm^2)

   Accelerator Area:                5901.339355 um^2 (0.005901 mm^2)
   Accelerator Area (SPM):          8078.704860 um^2 (0.008079 mm^2)
   Accelerator Area (Cache):        5901.339355 um^2 (0.005901 mm^2)

   ========= SPM Resizing  =======================
   SPM Optimized Leakage Power:     0.004248 mW
   SPM Opt Area:                    178.524902 um^2

58539932375: system.acctest.elem_matrix1_dma: SRC:0x0000000024120020, DST:0x000000008216e3c0, LEN:65536
58546280375: system.acctest.elem_matrix1_dma: Transfer completed in 6.348 us
Exiting @ tick 58547066250 because m5_exit instruction encountered
