gem5 Simulator System.  http://gem5.org
gem5 is copyrighted software; use the --copyright option for details.

gem5 compiled May 11 2023 13:12:28
gem5 started May 25 2023 10:32:09
gem5 executing on node4x10a.cs.rochester.edu, pid 64517
command line: /u/sgupta45/gem5-SALAM/build/ARM/gem5_bus.opt --debug-flags=HWACC,CommInterface,LLVMInterface,StreamDma,NoncoherentDma,TickTimer,SchedulerStats --outdir=BM_ARM_OUT/comb_2/canny_0_deblur_4_gru_4_harris_0_lstm_0_FCFS configs/SALAM/scheduler.py --mem-size=4GB --mem-type=LPDDR5_6400_1x16_BG_BL32 --kernel=/u/sgupta45/gem5-SALAM/benchmarks/scheduler/sw/bin_comb_2/canny_0_deblur_4_gru_4_harris_0_lstm_0_FCFS.elf --vans-config-path=/u/sgupta45/VANS/config --disk-image=/u/sgupta45/gem5-SALAM/baremetal/common/fake.iso --machine-type=VExpress_GEM5_V1 --dtb-file=none --bare-metal --cpu-type=ex5_LITTLE --cpu-clock=1.6GHz --accpath=/u/sgupta45/gem5-SALAM/benchmarks --caches --cacheline_size=64 --l1d_size=32kB --l1d_assoc=4 --l1i_size=32kB --l1i_assoc=2

Global frequency set at 1000000000000 ticks per second
Cycle Counts Loaded!
Cycle Counts Loaded!
Cycle Counts Loaded!
Cycle Counts Loaded!
Cycle Counts Loaded!
Cycle Counts Loaded!
Cycle Counts Loaded!
Cycle Counts Loaded!
Cycle Counts Loaded!
Cycle Counts Loaded!
Cycle Counts Loaded!
**** REAL SIMULATION ****
15010540625: global: Timer #2 started at tick 15010540625
15010795625: global: Timer #2 stopped at tick 15010795625. Duration: 255000
15014986250: global: Timer #2 started at tick 15014986250
15015026875: global: Timer #2 stopped at tick 15015026875. Duration: 40625
15019026250: global: Timer #2 started at tick 15019026250
15019068125: global: Timer #2 stopped at tick 15019068125. Duration: 41875
15023003750: global: Timer #2 started at tick 15023003750
15023035625: global: Timer #2 stopped at tick 15023035625. Duration: 31875
15026955625: global: Timer #2 started at tick 15026955625
15026988125: global: Timer #2 stopped at tick 15026988125. Duration: 32500
15047054375: global: Timer #2 started at tick 15047054375
15047131250: global: Timer #2 stopped at tick 15047131250. Duration: 76875
15066021875: global: Timer #2 started at tick 15066021875
15066131250: global: Timer #2 stopped at tick 15066131250. Duration: 109375
15085084375: global: Timer #2 started at tick 15085084375
15085113750: global: Timer #2 stopped at tick 15085113750. Duration: 29375
15119365875: system.acctest.elem_matrix0_dma: SRC:0x0000000082300fc0, DST:0x0000000024000020, LEN:65536
15131503875: system.acctest.elem_matrix0_dma: Transfer completed in 12.138 us
15133713750: system.acctest.elem_matrix1_dma: SRC:0x0000000082b1b7c0, DST:0x0000000024100020, LEN:65536
15145741750: system.acctest.elem_matrix1_dma: Transfer completed in 12.028 us
15147624500: system.acctest.elem_matrix2_dma: SRC:0x0000000083335fc0, DST:0x0000000024200020, LEN:65536
15159828500: system.acctest.elem_matrix2_dma: Transfer completed in 12.204 us
15161529500: system.acctest.elem_matrix3_dma: SRC:0x0000000083b507c0, DST:0x0000000024300020, LEN:65536
15166653000: system.acctest.isp0_dma: SRC:0x0000000082058a80, DST:0x0000000027000020, LEN:16900
15167104375: global: Number of accelerators running = 5
15167680625: global: Timer #0 started at tick 15167680625
15170225000: system.acctest.isp0_dma: Transfer completed in 3.572 us
15173970500: system.acctest.elem_matrix3_dma: Transfer completed in 12.441 us
15182358750: system.acctest.elem_matrix0_dma: SRC:0x0000000082200e00, DST:0x0000000024010020, LEN:65536
15182938750: global: Timer #0 stopped at tick 15182938750. Duration: 15258125
15182998125: global: Number of accelerators running = 5
15183178125: global: Timer #0 started at tick 15183178125
15194569750: system.acctest.elem_matrix0_dma: Transfer completed in 12.211 us
15196614500: system.acctest.elem_matrix1_dma: SRC:0x0000000082a1b600, DST:0x0000000024110020, LEN:65536
15196866875: global: Timer #0 stopped at tick 15196866875. Duration: 13688750
15196881250: global: Number of accelerators running = 5
15197108125: global: Timer #0 started at tick 15197108125
15208631500: system.acctest.elem_matrix1_dma: Transfer completed in 12.017 us
15210528750: system.acctest.elem_matrix2_dma: SRC:0x0000000083235e00, DST:0x0000000024210020, LEN:65536
15210783750: global: Timer #0 stopped at tick 15210783750. Duration: 13675625
15210798125: global: Number of accelerators running = 5
15210930625: global: Timer #0 started at tick 15210930625
15212067500: global: Timer #0 stopped at tick 15212067500. Duration: 1136875
15212081875: global: Number of accelerators running = 5
15212247500: global: Timer #0 started at tick 15212247500
15222481750: system.acctest.elem_matrix2_dma: Transfer completed in 11.953 us
15225663750: system.acctest.elem_matrix3_dma: SRC:0x0000000083a50600, DST:0x0000000024310020, LEN:65536
15225873750: global: Timer #0 stopped at tick 15225873750. Duration: 13626250
15225888125: global: Number of accelerators running = 5
15226016875: global: Timer #0 started at tick 15226016875
15227395625: global: Timer #0 stopped at tick 15227395625. Duration: 1378750
15227410000: global: Number of accelerators running = 5
15227526250: global: Timer #0 started at tick 15227526250
15228886250: global: Timer #0 stopped at tick 15228886250. Duration: 1360000
15228900625: global: Number of accelerators running = 5
15229016250: global: Timer #0 started at tick 15229016250
15230348125: global: Timer #0 stopped at tick 15230348125. Duration: 1331875
15230362500: global: Number of accelerators running = 5
15237653750: system.acctest.elem_matrix3_dma: Transfer completed in 11.99 us
15237738125: global: Timer #0 started at tick 15237738125
********************************************************************************
system.acctest.elem_matrix0.compute
   ========= Performance Analysis =============
   Setup Time:                      4.99142seconds
   Simulation Time:                 719.262seconds
   System Clock:                    1GHz
   Transistor Latency:              1ns
   Runtime:                         10932 cycles
   Runtime:                         10.932 us
   Stalls:                          0 cycles
   Executed Nodes:                  10931 cycles

********************************************************************************
   ========= Performance Analysis =================
   Setup Time:                      4.99142e+09ns
   Simulation Time:                 7.19262e+11ns
   System Clock:                    1GHz
   Transistor Latency:              0ns
   Runtime:                         10932 cycles
   Runtime:                         1.0932e-06 seconds
   Stalls:                          0 cycles
       Load Only:                   0 cycles
       Store Only:                  0 cycles
       Compute Only:                0 cycles
       Compute & Store:             0 cycles
       Load & Store:                0 cycles
       Load & Compute:              0 cycles
       Load & Compute & Store:      0 cycles
   Executed Nodes:                  10931 cycles
       Load Only:                   0 cycles
       Store Only:                  5 cycles
       Compute Only:                1 cycles
       Compute & Store:             21 cycles
       Load & Store:                0 cycles
       Load & Compute:              7 cycles
       Load & Compute & Store:      10897 cycles

   ========= Runtime FU's ========= (Max | Avg) ===
   Counter FU's:                      32 | 0.046838
   Integer Add/Sub FU's:               0 | 0.000000
   Integer Mul/Div FU's:               0 | 0.000000
   Integer Shifter FU's:               0 | 0.000000
   Integer Bitwise FU's:               1 | 0.000091
   Floating Point Float Add/Sub:      34 | 0.044252
   Floating Point Double Add/Sub:      0 | 0.000000
   Floating Point Float Mul/Div:       0 | 0.000000
   Floating Point Double Mul/Div:      0 | 0.000000
   0 Cycle Compare FU's:             102 | 0.046974
   GEP Instruction FU's:              96 | 0.046835
   Type Conversion FU's:               7 | 0.006782

   ========= Static FU's ==========================
   Counter FU's:                    0
   Integer Add/Sub FU's:            0
   Integer Mul/Div FU's:            0
   Integer Shifter FU's:            0
   Integer Bitwise FU's:            0
   Floating Point Float Add/Sub:    0
   Floating Point Double Add/Sub:   0
   Floating Point Float Mul/Div:    0
   Floating Point Double Mul/Div:   0
   0 Cycle Compare FU's:            0
   GEP Instruction FU's:            0
   Type Conversion FU's:            0
   Other:                           0

   ========= Pipeline Register Usage =============
   Total Number of Registers:       5641
   Max Register Usage Per Cycle:    138
   Avg Register Usage Per Cycle:    12.130992
   Avg Register Size (Bytes):       5.980606

   ========= Memory Configuration =================
   Cache Bus Ports:                 0
   Shared Cache Size:               0kB
   Local Bus Ports:                 0
   Private SPM Size:                256kB
   Private Read Ports:              0
   Private Write Ports:             0
   Private Read Bus Width:          64
   Private Write Bus Width:         64
       Memory Reads:                0
       Memory Writes:               0
   ========= Power Analysis ======================
   FU Leakage Power:                0.519269 mW 
   FU Dynamic Power:                0.154621 mW 
   FU Total Power:                  0.673890 mW 

   Registers Leakage Power:          0.005281 mW 
   Registers Dynamic Power:          0.015326 mW 
       Register Reads (Bits):        132616
       Register Writes (Bits):       133658
   Registers Total Power:            0.020607 mW

   SPM Leakage Power:               0.104100 mW
   SPM Read Dynamic Power:          1.997266 mW
   SPM Write Dynamic Power:         0.953321 mW
   SPM Total Power:                 3.054688 mW

   Cache Leakage Power:             0.000000 mW
   Cache Read Dynamic Power:        0.000000 mW
   Cache Write Dynamic Power:       0.000000 mW
   Cache Total Power:               0.000000 mW

   Accelerator Power:               0.694497 mW
   Accelerator Power (SPM):         3.749184 mW
   Accelerator Power (Cache):       0.694497 mW

   ========= Area Analysis =======================
   FU Area:                         70212.562500 um^2 (0.070213 mm^2)
   Register Area:                   429.271088 um^2 (0.000429 mm^2)
   SPM Area:                        2177.365505 um^2 (0.002177 mm^2)
   Cache Area:                      0.000000 um^2 (0.000000 mm^2)

   Accelerator Area:                70641.835938 um^2 (0.070642 mm^2)
   Accelerator Area (SPM):          72819.201442 um^2 (0.072819 mm^2)
   Accelerator Area (Cache):        70641.835938 um^2 (0.070642 mm^2)

   ========= SPM Resizing  =======================
   SPM Optimized Leakage Power:     0.004248 mW
   SPM Opt Area:                    178.524902 um^2

15239063125: global: Timer #0 stopped at tick 15239063125. Duration: 1325000
15239077500: global: Number of accelerators running = 5
15239199375: global: Timer #0 started at tick 15239199375
********************************************************************************
system.acctest.elem_matrix1.compute
   ========= Performance Analysis =============
   Setup Time:                      4.909688seconds
   Simulation Time:                 756.551596seconds
   System Clock:                    1.000000GHz
   Transistor Latency:              1ns
   Runtime:                         10932 cycles
   Runtime:                         10.932000 us
   Stalls:                          0 cycles
   Executed Nodes:                  10931 cycles

********************************************************************************
   ========= Performance Analysis =================
   Setup Time:                      4909688323.000000ns
   Simulation Time:                 756551595902.000000ns
   System Clock:                    1.000000GHz
   Transistor Latency:              0ns
   Runtime:                         10932 cycles
   Runtime:                         0.000001 seconds
   Stalls:                          0 cycles
       Load Only:                   0 cycles
       Store Only:                  0 cycles
       Compute Only:                0 cycles
       Compute & Store:             0 cycles
       Load & Store:                0 cycles
       Load & Compute:              0 cycles
       Load & Compute & Store:      0 cycles
   Executed Nodes:                  10931 cycles
       Load Only:                   0 cycles
       Store Only:                  5 cycles
       Compute Only:                1 cycles
       Compute & Store:             21 cycles
       Load & Store:                0 cycles
       Load & Compute:              7 cycles
       Load & Compute & Store:      10897 cycles

   ========= Runtime FU's ========= (Max | Avg) ===
   Counter FU's:                      32 | 0.046838
   Integer Add/Sub FU's:               0 | 0.000000
   Integer Mul/Div FU's:               0 | 0.000000
   Integer Shifter FU's:               0 | 0.000000
   Integer Bitwise FU's:               1 | 0.000091
   Floating Point Float Add/Sub:      34 | 0.044252
   Floating Point Double Add/Sub:      0 | 0.000000
   Floating Point Float Mul/Div:       0 | 0.000000
   Floating Point Double Mul/Div:      0 | 0.000000
   0 Cycle Compare FU's:             102 | 0.046974
   GEP Instruction FU's:              96 | 0.046835
   Type Conversion FU's:               7 | 0.006782

   ========= Static FU's ==========================
   Counter FU's:                    0
   Integer Add/Sub FU's:            0
   Integer Mul/Div FU's:            0
   Integer Shifter FU's:            0
   Integer Bitwise FU's:            0
   Floating Point Float Add/Sub:    0
   Floating Point Double Add/Sub:   0
   Floating Point Float Mul/Div:    0
   Floating Point Double Mul/Div:   0
   0 Cycle Compare FU's:            0
   GEP Instruction FU's:            0
   Type Conversion FU's:            0
   Other:                           0

   ========= Pipeline Register Usage =============
   Total Number of Registers:       5641
   Max Register Usage Per Cycle:    138
   Avg Register Usage Per Cycle:    12.130992
   Avg Register Size (Bytes):       5.980606

   ========= Memory Configuration =================
   Cache Bus Ports:                 0
   Shared Cache Size:               0kB
   Local Bus Ports:                 0
   Private SPM Size:                256kB
   Private Read Ports:              0
   Private Write Ports:             0
   Private Read Bus Width:          64
   Private Write Bus Width:         64
       Memory Reads:                0
       Memory Writes:               0
   ========= Power Analysis ======================
   FU Leakage Power:                0.519269 mW 
   FU Dynamic Power:                0.154621 mW 
   FU Total Power:                  0.673890 mW 

   Registers Leakage Power:          0.005281 mW 
   Registers Dynamic Power:          0.015326 mW 
       Register Reads (Bits):        132616
       Register Writes (Bits):       133658
   Registers Total Power:            0.020607 mW

   SPM Leakage Power:               0.104100 mW
   SPM Read Dynamic Power:          1.997266 mW
   SPM Write Dynamic Power:         0.953321 mW
   SPM Total Power:                 3.054688 mW

   Cache Leakage Power:             0.000000 mW
   Cache Read Dynamic Power:        0.000000 mW
   Cache Write Dynamic Power:       0.000000 mW
   Cache Total Power:               0.000000 mW

   Accelerator Power:               0.694497 mW
   Accelerator Power (SPM):         3.749184 mW
   Accelerator Power (Cache):       0.694497 mW

   ========= Area Analysis =======================
   FU Area:                         70212.562500 um^2 (0.070213 mm^2)
   Register Area:                   429.271088 um^2 (0.000429 mm^2)
   SPM Area:                        2177.365505 um^2 (0.002177 mm^2)
   Cache Area:                      0.000000 um^2 (0.000000 mm^2)

   Accelerator Area:                70641.835938 um^2 (0.070642 mm^2)
   Accelerator Area (SPM):          72819.201442 um^2 (0.072819 mm^2)
   Accelerator Area (Cache):        70641.835938 um^2 (0.070642 mm^2)

   ========= SPM Resizing  =======================
   SPM Optimized Leakage Power:     0.004248 mW
   SPM Opt Area:                    178.524902 um^2

15239891875: global: Timer #2 started at tick 15239891875
15240064375: global: Timer #2 stopped at tick 15240064375. Duration: 172500
15240274375: global: Timer #2 started at tick 15240274375
15240315625: global: Timer #2 stopped at tick 15240315625. Duration: 41250
********************************************************************************
system.acctest.elem_matrix2.compute
   ========= Performance Analysis =============
   Setup Time:                      5.139943seconds
   Simulation Time:                 742.406641seconds
   System Clock:                    1.000000GHz
   Transistor Latency:              1ns
   Runtime:                         10932 cycles
   Runtime:                         10.932000 us
   Stalls:                          0 cycles
   Executed Nodes:                  10931 cycles

********************************************************************************
   ========= Performance Analysis =================
   Setup Time:                      5139942536.000000ns
   Simulation Time:                 742406640604.000000ns
   System Clock:                    1.000000GHz
   Transistor Latency:              0ns
   Runtime:                         10932 cycles
   Runtime:                         0.000001 seconds
   Stalls:                          0 cycles
       Load Only:                   0 cycles
       Store Only:                  0 cycles
       Compute Only:                0 cycles
       Compute & Store:             0 cycles
       Load & Store:                0 cycles
       Load & Compute:              0 cycles
       Load & Compute & Store:      0 cycles
   Executed Nodes:                  10931 cycles
       Load Only:                   0 cycles
       Store Only:                  5 cycles
       Compute Only:                1 cycles
       Compute & Store:             21 cycles
       Load & Store:                0 cycles
       Load & Compute:              7 cycles
       Load & Compute & Store:      10897 cycles

   ========= Runtime FU's ========= (Max | Avg) ===
   Counter FU's:                      32 | 0.046838
   Integer Add/Sub FU's:               0 | 0.000000
   Integer Mul/Div FU's:               0 | 0.000000
   Integer Shifter FU's:               0 | 0.000000
   Integer Bitwise FU's:               1 | 0.000091
   Floating Point Float Add/Sub:      34 | 0.044252
   Floating Point Double Add/Sub:      0 | 0.000000
   Floating Point Float Mul/Div:       0 | 0.000000
   Floating Point Double Mul/Div:      0 | 0.000000
   0 Cycle Compare FU's:             102 | 0.046974
   GEP Instruction FU's:              96 | 0.046835
   Type Conversion FU's:               7 | 0.006782

   ========= Static FU's ==========================
   Counter FU's:                    0
   Integer Add/Sub FU's:            0
   Integer Mul/Div FU's:            0
   Integer Shifter FU's:            0
   Integer Bitwise FU's:            0
   Floating Point Float Add/Sub:    0
   Floating Point Double Add/Sub:   0
   Floating Point Float Mul/Div:    0
   Floating Point Double Mul/Div:   0
   0 Cycle Compare FU's:            0
   GEP Instruction FU's:            0
   Type Conversion FU's:            0
   Other:                           0

   ========= Pipeline Register Usage =============
   Total Number of Registers:       5641
   Max Register Usage Per Cycle:    138
   Avg Register Usage Per Cycle:    12.130992
   Avg Register Size (Bytes):       5.980606

   ========= Memory Configuration =================
   Cache Bus Ports:                 0
   Shared Cache Size:               0kB
   Local Bus Ports:                 0
   Private SPM Size:                256kB
   Private Read Ports:              0
   Private Write Ports:             0
   Private Read Bus Width:          64
   Private Write Bus Width:         64
       Memory Reads:                0
       Memory Writes:               0
   ========= Power Analysis ======================
   FU Leakage Power:                0.519269 mW 
   FU Dynamic Power:                0.154621 mW 
   FU Total Power:                  0.673890 mW 

   Registers Leakage Power:          0.005281 mW 
   Registers Dynamic Power:          0.015326 mW 
       Register Reads (Bits):        132616
       Register Writes (Bits):       133658
   Registers Total Power:            0.020607 mW

   SPM Leakage Power:               0.104100 mW
   SPM Read Dynamic Power:          1.997266 mW
   SPM Write Dynamic Power:         0.953321 mW
   SPM Total Power:                 3.054688 mW

   Cache Leakage Power:             0.000000 mW
   Cache Read Dynamic Power:        0.000000 mW
   Cache Write Dynamic Power:       0.000000 mW
   Cache Total Power:               0.000000 mW

   Accelerator Power:               0.694497 mW
   Accelerator Power (SPM):         3.749184 mW
   Accelerator Power (Cache):       0.694497 mW

   ========= Area Analysis =======================
   FU Area:                         70212.562500 um^2 (0.070213 mm^2)
   Register Area:                   429.271088 um^2 (0.000429 mm^2)
   SPM Area:                        2177.365505 um^2 (0.002177 mm^2)
   Cache Area:                      0.000000 um^2 (0.000000 mm^2)

   Accelerator Area:                70641.835938 um^2 (0.070642 mm^2)
   Accelerator Area (SPM):          72819.201442 um^2 (0.072819 mm^2)
   Accelerator Area (Cache):        70641.835938 um^2 (0.070642 mm^2)

   ========= SPM Resizing  =======================
   SPM Optimized Leakage Power:     0.004248 mW
   SPM Opt Area:                    178.524902 um^2

********************************************************************************
system.acctest.isp0.compute
   ========= Performance Analysis =============
   Setup Time:                      0.153073seconds
   Simulation Time:                 1288.727713seconds
   System Clock:                    1.000000GHz
   Transistor Latency:              1ns
   Runtime:                         34882 cycles
   Runtime:                         34.882000 us
   Stalls:                          1 cycles
   Executed Nodes:                  34880 cycles

********************************************************************************
   ========= Performance Analysis =================
   Setup Time:                      153072892.000000ns
   Simulation Time:                 1288727713319.000000ns
   System Clock:                    1.000000GHz
   Transistor Latency:              0ns
   Runtime:                         34882 cycles
   Runtime:                         0.000003 seconds
   Stalls:                          1 cycles
       Load Only:                   0 cycles
       Store Only:                  1 cycles
       Compute Only:                0 cycles
       Compute & Store:             0 cycles
       Load & Store:                0 cycles
       Load & Compute:              0 cycles
       Load & Compute & Store:      0 cycles
   Executed Nodes:                  34880 cycles
       Load Only:                   0 cycles
       Store Only:                  1 cycles
       Compute Only:                3453 cycles
       Compute & Store:             19014 cycles
       Load & Store:                0 cycles
       Load & Compute:              2467 cycles
       Load & Compute & Store:      9945 cycles

   ========= Runtime FU's ========= (Max | Avg) ===
   Counter FU's:                      10 | 0.118075
   Integer Add/Sub FU's:              76 | 0.082082
   Integer Mul/Div FU's:              11 | 0.043888
   Integer Shifter FU's:              42 | 0.055974
   Integer Bitwise FU's:               4 | 0.059443
   Floating Point Float Add/Sub:      53 | 0.116839
   Floating Point Double Add/Sub:      0 | 0.000000
   Floating Point Float Mul/Div:      76 | 0.625626
   Floating Point Double Mul/Div:      0 | 0.000000
   0 Cycle Compare FU's:              85 | 0.664984
   GEP Instruction FU's:              33 | 0.117424
   Type Conversion FU's:             110 | 0.379700

   ========= Static FU's ==========================
   Counter FU's:                    0
   Integer Add/Sub FU's:            0
   Integer Mul/Div FU's:            0
   Integer Shifter FU's:            0
   Integer Bitwise FU's:            0
   Floating Point Float Add/Sub:    0
   Floating Point Double Add/Sub:   0
   Floating Point Float Mul/Div:    0
   Floating Point Double Mul/Div:   0
   0 Cycle Compare FU's:            0
   GEP Instruction FU's:            0
   Type Conversion FU's:            0
   Other:                           0

   ========= Pipeline Register Usage =============
   Total Number of Registers:       1620
   Max Register Usage Per Cycle:    151
   Avg Register Usage Per Cycle:    58.744711
   Avg Register Size (Bytes):       5.073357

   ========= Memory Configuration =================
   Cache Bus Ports:                 0
   Shared Cache Size:               0kB
   Local Bus Ports:                 0
   Private SPM Size:                112kB
   Private Read Ports:              0
   Private Write Ports:             0
   Private Read Bus Width:          64
   Private Write Bus Width:         64
       Memory Reads:                0
       Memory Writes:               0
   ========= Power Analysis ======================
   FU Leakage Power:                1.637787 mW 
   FU Dynamic Power:                9.655087 mW 
   FU Total Power:                  11.292874 mW 

   Registers Leakage Power:          0.021654 mW 
   Registers Dynamic Power:          3.085961 mW 
       Register Reads (Bits):        2049133
       Register Writes (Bits):       2049168
   Registers Total Power:            3.107615 mW

   SPM Leakage Power:               0.061081 mW
   SPM Read Dynamic Power:          11.103730 mW
   SPM Write Dynamic Power:         7.385230 mW
   SPM Total Power:                 18.550041 mW

   Cache Leakage Power:             0.000000 mW
   Cache Read Dynamic Power:        0.000000 mW
   Cache Write Dynamic Power:       0.000000 mW
   Cache Total Power:               0.000000 mW

   Accelerator Power:               14.400490 mW
   Accelerator Power (SPM):         32.950531 mW
   Accelerator Power (Cache):       14.400490 mW

   ========= Area Analysis =======================
   FU Area:                         176023.796875 um^2 (0.176024 mm^2)
   Register Area:                   1760.064941 um^2 (0.001760 mm^2)
   SPM Area:                        2165.394891 um^2 (0.002165 mm^2)
   Cache Area:                      0.000000 um^2 (0.000000 mm^2)

   Accelerator Area:                177783.859375 um^2 (0.177784 mm^2)
   Accelerator Area (SPM):          179949.254266 um^2 (0.179949 mm^2)
   Accelerator Area (Cache):        177783.859375 um^2 (0.177784 mm^2)

   ========= SPM Resizing  =======================
   SPM Optimized Leakage Power:     0.005964 mW
   SPM Opt Area:                    422.108128 um^2

********************************************************************************
system.acctest.elem_matrix3.compute
   ========= Performance Analysis =============
   Setup Time:                      8.668012seconds
   Simulation Time:                 392.669155seconds
   System Clock:                    1.000000GHz
   Transistor Latency:              1ns
   Runtime:                         10932 cycles
   Runtime:                         10.932000 us
   Stalls:                          0 cycles
   Executed Nodes:                  10931 cycles

********************************************************************************
   ========= Performance Analysis =================
   Setup Time:                      8668011568.000000ns
   Simulation Time:                 392669154973.000000ns
   System Clock:                    1.000000GHz
   Transistor Latency:              0ns
   Runtime:                         10932 cycles
   Runtime:                         0.000001 seconds
   Stalls:                          0 cycles
       Load Only:                   0 cycles
       Store Only:                  0 cycles
       Compute Only:                0 cycles
       Compute & Store:             0 cycles
       Load & Store:                0 cycles
       Load & Compute:              0 cycles
       Load & Compute & Store:      0 cycles
   Executed Nodes:                  10931 cycles
       Load Only:                   0 cycles
       Store Only:                  5 cycles
       Compute Only:                1 cycles
       Compute & Store:             21 cycles
       Load & Store:                0 cycles
       Load & Compute:              7 cycles
       Load & Compute & Store:      10897 cycles

   ========= Runtime FU's ========= (Max | Avg) ===
   Counter FU's:                      32 | 0.046838
   Integer Add/Sub FU's:               0 | 0.000000
   Integer Mul/Div FU's:               0 | 0.000000
   Integer Shifter FU's:               0 | 0.000000
   Integer Bitwise FU's:               1 | 0.000091
   Floating Point Float Add/Sub:      34 | 0.044252
   Floating Point Double Add/Sub:      0 | 0.000000
   Floating Point Float Mul/Div:       0 | 0.000000
   Floating Point Double Mul/Div:      0 | 0.000000
   0 Cycle Compare FU's:             102 | 0.046974
   GEP Instruction FU's:              96 | 0.046835
   Type Conversion FU's:               7 | 0.006782

   ========= Static FU's ==========================
   Counter FU's:                    0
   Integer Add/Sub FU's:            0
   Integer Mul/Div FU's:            0
   Integer Shifter FU's:            0
   Integer Bitwise FU's:            0
   Floating Point Float Add/Sub:    0
   Floating Point Double Add/Sub:   0
   Floating Point Float Mul/Div:    0
   Floating Point Double Mul/Div:   0
   0 Cycle Compare FU's:            0
   GEP Instruction FU's:            0
   Type Conversion FU's:            0
   Other:                           0

   ========= Pipeline Register Usage =============
   Total Number of Registers:       5641
   Max Register Usage Per Cycle:    138
   Avg Register Usage Per Cycle:    12.130992
   Avg Register Size (Bytes):       5.980606

   ========= Memory Configuration =================
   Cache Bus Ports:                 0
   Shared Cache Size:               0kB
   Local Bus Ports:                 0
   Private SPM Size:                256kB
   Private Read Ports:              0
   Private Write Ports:             0
   Private Read Bus Width:          64
   Private Write Bus Width:         64
       Memory Reads:                0
       Memory Writes:               0
   ========= Power Analysis ======================
   FU Leakage Power:                0.519269 mW 
   FU Dynamic Power:                0.154621 mW 
   FU Total Power:                  0.673890 mW 

   Registers Leakage Power:          0.005281 mW 
   Registers Dynamic Power:          0.015326 mW 
       Register Reads (Bits):        132616
       Register Writes (Bits):       133658
   Registers Total Power:            0.020607 mW

   SPM Leakage Power:               0.104100 mW
   SPM Read Dynamic Power:          1.997266 mW
   SPM Write Dynamic Power:         0.953321 mW
   SPM Total Power:                 3.054688 mW

   Cache Leakage Power:             0.000000 mW
   Cache Read Dynamic Power:        0.000000 mW
   Cache Write Dynamic Power:       0.000000 mW
   Cache Total Power:               0.000000 mW

   Accelerator Power:               0.694497 mW
   Accelerator Power (SPM):         3.749184 mW
   Accelerator Power (Cache):       0.694497 mW

   ========= Area Analysis =======================
   FU Area:                         70212.562500 um^2 (0.070213 mm^2)
   Register Area:                   429.271088 um^2 (0.000429 mm^2)
   SPM Area:                        2177.365505 um^2 (0.002177 mm^2)
   Cache Area:                      0.000000 um^2 (0.000000 mm^2)

   Accelerator Area:                70641.835938 um^2 (0.070642 mm^2)
   Accelerator Area (SPM):          72819.201442 um^2 (0.072819 mm^2)
   Accelerator Area (Cache):        70641.835938 um^2 (0.070642 mm^2)

   ========= SPM Resizing  =======================
   SPM Optimized Leakage Power:     0.004248 mW
   SPM Opt Area:                    178.524902 um^2

15254516625: system.acctest.elem_matrix0_dma: SRC:0x0000000024020020, DST:0x0000000082210e00, LEN:65536
15255043750: global: Timer #0 stopped at tick 15255043750. Duration: 15844375
15255058125: global: Number of accelerators running = 5
15255180000: global: Timer #0 started at tick 15255180000
15255902500: global: Timer #2 started at tick 15255902500
15255935000: global: Timer #2 stopped at tick 15255935000. Duration: 32500
15256755000: global: Timer #2 started at tick 15256755000
15256786875: global: Timer #2 stopped at tick 15256786875. Duration: 31875
15261577625: system.acctest.elem_matrix0_dma: Transfer completed in 7.061 us
15270479500: system.acctest.elem_matrix1_dma: SRC:0x0000000024120020, DST:0x0000000082a2b600, LEN:65536
15270853750: global: Timer #0 stopped at tick 15270853750. Duration: 15673750
15270868125: global: Number of accelerators running = 5
15270990625: global: Timer #0 started at tick 15270990625
15271426875: global: Timer #2 started at tick 15271426875
15271468125: global: Timer #2 stopped at tick 15271468125. Duration: 41250
15272295625: global: Timer #2 started at tick 15272295625
15272331875: global: Timer #2 stopped at tick 15272331875. Duration: 36250
15277434500: system.acctest.elem_matrix1_dma: Transfer completed in 6.955 us
15285897375: system.acctest.elem_matrix2_dma: SRC:0x0000000024220020, DST:0x0000000083245e00, LEN:65536
15286256250: global: Timer #0 stopped at tick 15286256250. Duration: 15265625
15286270625: global: Number of accelerators running = 5
15286393125: global: Timer #0 started at tick 15286393125
15286967500: global: Timer #2 started at tick 15286967500
15287004375: global: Timer #2 stopped at tick 15287004375. Duration: 36875
15287636250: global: DAG ID = 0
15287655625: global: Node ID = 0
15287673750: global: Node deadline difference = -111
15287735000: global: Predicted memory time / byte = 0 us/byte
15287753125: global: Predicted memory time = 0 us
15287771250: global: Predicted memory time / byte = 0 us/byte
15287789375: global: Predicted memory time = 0 us
15287807500: global: Predicted memory time / byte = 0 us/byte
15287825625: global: Predicted memory time = 0 us
15287843750: global: Predicted memory time / byte = 0 us/byte
15287861875: global: Predicted memory time = 0 us
15289189000: system.acctest.grayscale0_dma: SRC:0x0000000027004224, DST:0x0000000025000020, LEN:49152
15294924000: system.acctest.isp0_dma: SRC:0x00000000820babc0, DST:0x0000000027000020, LEN:16900
15295125000: global: Timer #0 stopped at tick 15295125000. Duration: 8731875
15295139375: global: Number of accelerators running = 6
15295260625: global: Timer #0 started at tick 15295260625
15295583125: global: Timer #2 started at tick 15295583125
15295615625: global: Timer #2 stopped at tick 15295615625. Duration: 32500
15295640625: global: Timer #2 started at tick 15295640625
15295671250: global: Timer #2 stopped at tick 15295671250. Duration: 30625
15296493375: system.acctest.elem_matrix2_dma: Transfer completed in 10.596 us
15299115000: system.acctest.isp0_dma: Transfer completed in 4.191 us
15300994000: system.acctest.grayscale0_dma: Transfer completed in 11.805 us
15308929500: system.acctest.elem_matrix3_dma: SRC:0x0000000024320020, DST:0x0000000083a60600, LEN:65536
15309293125: global: Timer #0 stopped at tick 15309293125. Duration: 14032500
15309307500: global: Number of accelerators running = 6
15309423125: global: Timer #0 started at tick 15309423125
15309660625: global: DAG ID = 4
15309723125: global: Node ID = 0
15309794375: global: Node deadline difference = -2115
15309814375: global: Predicted memory time / byte = 0 us/byte
15309832500: global: Predicted memory time = 0 us
15309850625: global: Predicted memory time / byte = 0 us/byte
15309868750: global: Predicted memory time = 0 us
15309886875: global: Predicted memory time / byte = 0 us/byte
15309905000: global: Predicted memory time = 0 us
15309923125: global: Predicted memory time / byte = 0 us/byte
15309941250: global: Predicted memory time = 0 us
15315638500: system.acctest.elem_matrix3_dma: Transfer completed in 6.709 us
15324394500: system.acctest.elem_matrix0_dma: SRC:0x00000000821a0e00, DST:0x0000000024000020, LEN:65536
15324659375: global: Timer #0 stopped at tick 15324659375. Duration: 15236250
15324673750: global: Number of accelerators running = 6
15324789375: global: Timer #0 started at tick 15324789375
15324962500: global: DAG ID = 5
15324976250: global: Node ID = 0
15324995625: global: Node deadline difference = -2100
15325008125: global: Predicted memory time / byte = 0 us/byte
15325020625: global: Predicted memory time = 0 us
15325033125: global: Predicted memory time / byte = 0 us/byte
15325045625: global: Predicted memory time = 0 us
15325058125: global: Predicted memory time / byte = 0 us/byte
15325070625: global: Predicted memory time = 0 us
15325083125: global: Predicted memory time / byte = 0 us/byte
15325095625: global: Predicted memory time = 0 us
15336392500: system.acctest.elem_matrix0_dma: Transfer completed in 11.998 us
15338868750: system.acctest.elem_matrix1_dma: SRC:0x0000000082210e00, DST:0x0000000024100020, LEN:65536
15339129375: global: Timer #0 stopped at tick 15339129375. Duration: 14340000
15339143750: global: Number of accelerators running = 6
15339272500: global: Timer #0 started at tick 15339272500
15339450625: global: DAG ID = 6
15339464375: global: Node ID = 0
15339483750: global: Node deadline difference = -2085
15339496250: global: Predicted memory time / byte = 0 us/byte
15339508750: global: Predicted memory time = 0 us
15339521250: global: Predicted memory time / byte = 0 us/byte
15339533750: global: Predicted memory time = 0 us
15339546250: global: Predicted memory time / byte = 0 us/byte
15339558750: global: Predicted memory time = 0 us
15339571250: global: Predicted memory time / byte = 0 us/byte
15339583750: global: Predicted memory time = 0 us
15350865750: system.acctest.elem_matrix1_dma: Transfer completed in 11.997 us
15352990875: system.acctest.elem_matrix2_dma: SRC:0x0000000082b1b7c0, DST:0x0000000024200020, LEN:65536
15353208125: global: Timer #0 stopped at tick 15353208125. Duration: 13935625
15353222500: global: Number of accelerators running = 6
15353344375: global: Timer #0 started at tick 15353344375
15354166875: global: Timer #0 stopped at tick 15354166875. Duration: 822500
15354181250: global: Number of accelerators running = 6
15354308750: global: Timer #0 started at tick 15354308750
15355446250: global: Timer #0 stopped at tick 15355446250. Duration: 1137500
15355460625: global: Number of accelerators running = 6
15355583125: global: Timer #0 started at tick 15355583125
15355761250: global: DAG ID = 7
15355775000: global: Node ID = 0
15355794375: global: Node deadline difference = -2069
15355806875: global: Predicted memory time / byte = 0 us/byte
15355819375: global: Predicted memory time = 0 us
15355831875: global: Predicted memory time / byte = 0 us/byte
15355844375: global: Predicted memory time = 0 us
15355856875: global: Predicted memory time / byte = 0 us/byte
15355869375: global: Predicted memory time = 0 us
15355881875: global: Predicted memory time / byte = 0 us/byte
15355894375: global: Predicted memory time = 0 us
15364975875: system.acctest.elem_matrix2_dma: Transfer completed in 11.985 us
********************************************************************************
system.acctest.grayscale0.compute
   ========= Performance Analysis =============
   Setup Time:                      0.016466seconds
   Simulation Time:                 460.506992seconds
   System Clock:                    1.000000GHz
   Transistor Latency:              1ns
   Runtime:                         10263 cycles
   Runtime:                         10.263000 us
   Stalls:                          1 cycles
   Executed Nodes:                  10261 cycles

********************************************************************************
   ========= Performance Analysis =================
   Setup Time:                      16465674.000000ns
   Simulation Time:                 460506991743.000000ns
   System Clock:                    1.000000GHz
   Transistor Latency:              0ns
   Runtime:                         10263 cycles
   Runtime:                         0.000001 seconds
   Stalls:                          1 cycles
       Load Only:                   0 cycles
       Store Only:                  1 cycles
       Compute Only:                0 cycles
       Compute & Store:             0 cycles
       Load & Store:                0 cycles
       Load & Compute:              0 cycles
       Load & Compute & Store:      0 cycles
   Executed Nodes:                  10261 cycles
       Load Only:                   0 cycles
       Store Only:                  1 cycles
       Compute Only:                88 cycles
       Compute & Store:             344 cycles
       Load & Store:                0 cycles
       Load & Compute:              1981 cycles
       Load & Compute & Store:      7847 cycles

   ========= Runtime FU's ========= (Max | Avg) ===
   Counter FU's:                      24 | 0.199556
   Integer Add/Sub FU's:               0 | 0.000000
   Integer Mul/Div FU's:               8 | 0.199552
   Integer Shifter FU's:               0 | 0.000000
   Integer Bitwise FU's:               1 | 0.000097
   Floating Point Float Add/Sub:      49 | 0.114264
   Floating Point Double Add/Sub:      0 | 0.000000
   Floating Point Float Mul/Div:      42 | 0.114129
   Floating Point Double Mul/Div:      0 | 0.000000
   0 Cycle Compare FU's:               9 | 0.066626
   GEP Instruction FU's:              36 | 0.177452
   Type Conversion FU's:              76 | 0.401969

   ========= Static FU's ==========================
   Counter FU's:                    0
   Integer Add/Sub FU's:            0
   Integer Mul/Div FU's:            0
   Integer Shifter FU's:            0
   Integer Bitwise FU's:            0
   Floating Point Float Add/Sub:    0
   Floating Point Double Add/Sub:   0
   Floating Point Float Mul/Div:    0
   Floating Point Double Mul/Div:   0
   0 Cycle Compare FU's:            0
   GEP Instruction FU's:            0
   Type Conversion FU's:            0
   Other:                           0

   ========= Pipeline Register Usage =============
   Total Number of Registers:       235
   Max Register Usage Per Cycle:    90
   Avg Register Usage Per Cycle:    33.924291
   Avg Register Size (Bytes):       5.841147

   ========= Memory Configuration =================
   Cache Bus Ports:                 0
   Shared Cache Size:               0kB
   Local Bus Ports:                 0
   Private SPM Size:                176kB
   Private Read Ports:              0
   Private Write Ports:             0
   Private Read Bus Width:          64
   Private Write Bus Width:         64
       Memory Reads:                0
       Memory Writes:               0
   ========= Power Analysis ======================
   FU Leakage Power:                1.178269 mW 
   FU Dynamic Power:                0.617392 mW 
   FU Total Power:                  1.795662 mW 

   Registers Leakage Power:          0.014185 mW 
   Registers Dynamic Power:          0.101057 mW 
       Register Reads (Bits):        348165
       Register Writes (Bits):       348168
   Registers Total Power:            0.115242 mW

   SPM Leakage Power:               0.089881 mW
   SPM Read Dynamic Power:          6.997296 mW
   SPM Write Dynamic Power:         2.062375 mW
   SPM Total Power:                 9.149552 mW

   Cache Leakage Power:             0.000000 mW
   Cache Read Dynamic Power:        0.000000 mW
   Cache Write Dynamic Power:       0.000000 mW
   Cache Total Power:               0.000000 mW

   Accelerator Power:               1.910904 mW
   Accelerator Power (SPM):         11.060456 mW
   Accelerator Power (Cache):       1.910904 mW

   ========= Area Analysis =======================
   FU Area:                         143348.187500 um^2 (0.143348 mm^2)
   Register Area:                   1152.968140 um^2 (0.001153 mm^2)
   SPM Area:                        3573.642862 um^2 (0.003574 mm^2)
   Cache Area:                      0.000000 um^2 (0.000000 mm^2)

   Accelerator Area:                144501.156250 um^2 (0.144501 mm^2)
   Accelerator Area (SPM):          148074.799112 um^2 (0.148075 mm^2)
   Accelerator Area (Cache):        144501.156250 um^2 (0.144501 mm^2)

   ========= SPM Resizing  =======================
   SPM Optimized Leakage Power:     0.003633 mW
   SPM Opt Area:                    364.024374 um^2

15369453750: system.acctest.elem_matrix3_dma: SRC:0x0000000082a2b600, DST:0x0000000024300020, LEN:65536
15369665000: global: Timer #0 stopped at tick 15369665000. Duration: 14081875
15369679375: global: Number of accelerators running = 6
15369796250: global: Timer #0 started at tick 15369796250
15371333125: global: Timer #0 stopped at tick 15371333125. Duration: 1536875
15371347500: global: Number of accelerators running = 6
15371463125: global: Timer #0 started at tick 15371463125
15381444750: system.acctest.elem_matrix3_dma: Transfer completed in 11.991 us
********************************************************************************
system.acctest.elem_matrix0.compute
   ========= Performance Analysis =============
   Setup Time:                      8.063077seconds
   Simulation Time:                 435.521258seconds
   System Clock:                    1.000000GHz
   Transistor Latency:              1ns
   Runtime:                         10932 cycles
   Runtime:                         10.932000 us
   Stalls:                          1 cycles
   Executed Nodes:                  10930 cycles

********************************************************************************
   ========= Performance Analysis =================
   Setup Time:                      8063076656.000000ns
   Simulation Time:                 435521258127.000000ns
   System Clock:                    1.000000GHz
   Transistor Latency:              0ns
   Runtime:                         10932 cycles
   Runtime:                         0.000001 seconds
   Stalls:                          1 cycles
       Load Only:                   0 cycles
       Store Only:                  1 cycles
       Compute Only:                0 cycles
       Compute & Store:             0 cycles
       Load & Store:                0 cycles
       Load & Compute:              0 cycles
       Load & Compute & Store:      0 cycles
   Executed Nodes:                  10930 cycles
       Load Only:                   0 cycles
       Store Only:                  4 cycles
       Compute Only:                1 cycles
       Compute & Store:             21 cycles
       Load & Store:                0 cycles
       Load & Compute:              6 cycles
       Load & Compute & Store:      10898 cycles

   ========= Runtime FU's ========= (Max | Avg) ===
   Counter FU's:                      32 | 0.046838
   Integer Add/Sub FU's:               0 | 0.000000
   Integer Mul/Div FU's:               0 | 0.000000
   Integer Shifter FU's:               0 | 0.000000
   Integer Bitwise FU's:               1 | 0.000091
   Floating Point Float Add/Sub:       0 | 0.000000
   Floating Point Double Add/Sub:      0 | 0.000000
   Floating Point Float Mul/Div:      34 | 0.044252
   Floating Point Double Mul/Div:      0 | 0.000000
   0 Cycle Compare FU's:             102 | 0.046945
   GEP Instruction FU's:              96 | 0.046835
   Type Conversion FU's:               7 | 0.006782

   ========= Static FU's ==========================
   Counter FU's:                    0
   Integer Add/Sub FU's:            0
   Integer Mul/Div FU's:            0
   Integer Shifter FU's:            0
   Integer Bitwise FU's:            0
   Floating Point Float Add/Sub:    0
   Floating Point Double Add/Sub:   0
   Floating Point Float Mul/Div:    0
   Floating Point Double Mul/Div:   0
   0 Cycle Compare FU's:            0
   GEP Instruction FU's:            0
   Type Conversion FU's:            0
   Other:                           0

   ========= Pipeline Register Usage =============
   Total Number of Registers:       5641
   Max Register Usage Per Cycle:    137
   Avg Register Usage Per Cycle:    12.130992
   Avg Register Size (Bytes):       5.980606

   ========= Memory Configuration =================
   Cache Bus Ports:                 0
   Shared Cache Size:               0kB
   Local Bus Ports:                 0
   Private SPM Size:                256kB
   Private Read Ports:              0
   Private Write Ports:             0
   Private Read Bus Width:          64
   Private Write Bus Width:         64
       Memory Reads:                0
       Memory Writes:               0
   ========= Power Analysis ======================
   FU Leakage Power:                0.045377 mW 
   FU Dynamic Power:                0.142576 mW 
   FU Total Power:                  0.187953 mW 

   Registers Leakage Power:          0.005281 mW 
   Registers Dynamic Power:          0.015326 mW 
       Register Reads (Bits):        132616
       Register Writes (Bits):       133658
   Registers Total Power:            0.020607 mW

   SPM Leakage Power:               0.104100 mW
   SPM Read Dynamic Power:          2.785289 mW
   SPM Write Dynamic Power:         2.044305 mW
   SPM Total Power:                 4.933694 mW

   Cache Leakage Power:             0.000000 mW
   Cache Read Dynamic Power:        0.000000 mW
   Cache Write Dynamic Power:       0.000000 mW
   Cache Total Power:               0.000000 mW

   Accelerator Power:               0.208559 mW
   Accelerator Power (SPM):         5.142254 mW
   Accelerator Power (Cache):       0.208559 mW

   ========= Area Analysis =======================
   FU Area:                         5472.068359 um^2 (0.005472 mm^2)
   Register Area:                   429.271088 um^2 (0.000429 mm^2)
   SPM Area:                        2177.365505 um^2 (0.002177 mm^2)
   Cache Area:                      0.000000 um^2 (0.000000 mm^2)

   Accelerator Area:                5901.339355 um^2 (0.005901 mm^2)
   Accelerator Area (SPM):          8078.704860 um^2 (0.008079 mm^2)
   Accelerator Area (Cache):        5901.339355 um^2 (0.005901 mm^2)

   ========= SPM Resizing  =======================
   SPM Optimized Leakage Power:     0.004248 mW
   SPM Opt Area:                    178.524902 um^2

15384839500: system.acctest.elem_matrix1_dma: SRC:0x00000000821c0e00, DST:0x0000000024110020, LEN:65536
15385063750: global: Timer #0 stopped at tick 15385063750. Duration: 13600625
15385078125: global: Number of accelerators running = 6
15385203125: global: Timer #0 started at tick 15385203125
********************************************************************************
system.acctest.isp0.compute
   ========= Performance Analysis =============
   Setup Time:                      0.506079seconds
   Simulation Time:                 1229.110371seconds
   System Clock:                    1.000000GHz
   Transistor Latency:              1ns
   Runtime:                         34882 cycles
   Runtime:                         34.882000 us
   Stalls:                          1 cycles
   Executed Nodes:                  34880 cycles

********************************************************************************
   ========= Performance Analysis =================
   Setup Time:                      506078564.000000ns
   Simulation Time:                 1229110371249.000000ns
   System Clock:                    1.000000GHz
   Transistor Latency:              0ns
   Runtime:                         34882 cycles
   Runtime:                         0.000003 seconds
   Stalls:                          1 cycles
       Load Only:                   0 cycles
       Store Only:                  1 cycles
       Compute Only:                0 cycles
       Compute & Store:             0 cycles
       Load & Store:                0 cycles
       Load & Compute:              0 cycles
       Load & Compute & Store:      0 cycles
   Executed Nodes:                  34880 cycles
       Load Only:                   0 cycles
       Store Only:                  1 cycles
       Compute Only:                3453 cycles
       Compute & Store:             19014 cycles
       Load & Store:                0 cycles
       Load & Compute:              2467 cycles
       Load & Compute & Store:      9945 cycles

   ========= Runtime FU's ========= (Max | Avg) ===
   Counter FU's:                      10 | 0.118075
   Integer Add/Sub FU's:              76 | 0.082082
   Integer Mul/Div FU's:              11 | 0.043888
   Integer Shifter FU's:              42 | 0.055974
   Integer Bitwise FU's:               4 | 0.059443
   Floating Point Float Add/Sub:      53 | 0.116839
   Floating Point Double Add/Sub:      0 | 0.000000
   Floating Point Float Mul/Div:      76 | 0.625626
   Floating Point Double Mul/Div:      0 | 0.000000
   0 Cycle Compare FU's:              85 | 0.664984
   GEP Instruction FU's:              33 | 0.117424
   Type Conversion FU's:             110 | 0.379700

   ========= Static FU's ==========================
   Counter FU's:                    0
   Integer Add/Sub FU's:            0
   Integer Mul/Div FU's:            0
   Integer Shifter FU's:            0
   Integer Bitwise FU's:            0
   Floating Point Float Add/Sub:    0
   Floating Point Double Add/Sub:   0
   Floating Point Float Mul/Div:    0
   Floating Point Double Mul/Div:   0
   0 Cycle Compare FU's:            0
   GEP Instruction FU's:            0
   Type Conversion FU's:            0
   Other:                           0

   ========= Pipeline Register Usage =============
   Total Number of Registers:       1620
   Max Register Usage Per Cycle:    151
   Avg Register Usage Per Cycle:    58.744711
   Avg Register Size (Bytes):       5.073357

   ========= Memory Configuration =================
   Cache Bus Ports:                 0
   Shared Cache Size:               0kB
   Local Bus Ports:                 0
   Private SPM Size:                112kB
   Private Read Ports:              0
   Private Write Ports:             0
   Private Read Bus Width:          64
   Private Write Bus Width:         64
       Memory Reads:                0
       Memory Writes:               0
   ========= Power Analysis ======================
   FU Leakage Power:                1.637787 mW 
   FU Dynamic Power:                9.655087 mW 
   FU Total Power:                  11.292874 mW 

   Registers Leakage Power:          0.021654 mW 
   Registers Dynamic Power:          3.085961 mW 
       Register Reads (Bits):        2049133
       Register Writes (Bits):       2049168
   Registers Total Power:            3.107615 mW

   SPM Leakage Power:               0.061081 mW
   SPM Read Dynamic Power:          15.102444 mW
   SPM Write Dynamic Power:         10.618341 mW
   SPM Total Power:                 25.781867 mW

   Cache Leakage Power:             0.000000 mW
   Cache Read Dynamic Power:        0.000000 mW
   Cache Write Dynamic Power:       0.000000 mW
   Cache Total Power:               0.000000 mW

   Accelerator Power:               14.400490 mW
   Accelerator Power (SPM):         40.182357 mW
   Accelerator Power (Cache):       14.400490 mW

   ========= Area Analysis =======================
   FU Area:                         176023.796875 um^2 (0.176024 mm^2)
   Register Area:                   1760.064941 um^2 (0.001760 mm^2)
   SPM Area:                        2165.394891 um^2 (0.002165 mm^2)
   Cache Area:                      0.000000 um^2 (0.000000 mm^2)

   Accelerator Area:                177783.859375 um^2 (0.177784 mm^2)
   Accelerator Area (SPM):          179949.254266 um^2 (0.179949 mm^2)
   Accelerator Area (Cache):        177783.859375 um^2 (0.177784 mm^2)

   ========= SPM Resizing  =======================
   SPM Optimized Leakage Power:     0.005964 mW
   SPM Opt Area:                    422.108128 um^2

15396823500: system.acctest.elem_matrix1_dma: Transfer completed in 11.984 us
15398692375: system.acctest.elem_matrix2_dma: SRC:0x00000000821a0e00, DST:0x0000000024210020, LEN:65536
15398906250: global: Timer #0 stopped at tick 15398906250. Duration: 13703125
15398920625: global: Number of accelerators running = 6
15399036250: global: Timer #0 started at tick 15399036250
15399490625: global: Timer #2 started at tick 15399490625
15399523750: global: Timer #2 stopped at tick 15399523750. Duration: 33125
15410860375: system.acctest.elem_matrix2_dma: Transfer completed in 12.168 us
15414127375: system.acctest.grayscale0_dma: SRC:0x000000002500c020, DST:0x0000000082068e40, LEN:65536
15415986000: system.acctest.convolution0_dma: SRC:0x000000002500c020, DST:0x0000000022000020, LEN:65536
15416428125: global: Timer #0 stopped at tick 15416428125. Duration: 17391875
15416442500: global: Number of accelerators running = 7
15416603125: global: Timer #0 started at tick 15416603125
15424899375: system.acctest.grayscale0_dma: Transfer completed in 10.772 us
15429371000: system.acctest.convolution0_dma: Transfer completed in 13.385 us
15430145875: system.acctest.elem_matrix3_dma: SRC:0x00000000821c0e00, DST:0x0000000024310020, LEN:65536
15430358125: global: Timer #0 stopped at tick 15430358125. Duration: 13755000
15430372500: global: Number of accelerators running = 7
15430488125: global: Timer #0 started at tick 15430488125
15430813125: global: Timer #2 started at tick 15430813125
15430853125: global: Timer #2 stopped at tick 15430853125. Duration: 40000
15442145875: system.acctest.elem_matrix3_dma: Transfer completed in 12 us
15444140875: system.acctest.elem_matrix0_dma: SRC:0x0000000024010020, DST:0x0000000082220e00, LEN:65536
15444492500: global: Timer #0 stopped at tick 15444492500. Duration: 14004375
15444506875: global: Number of accelerators running = 7
15444621250: global: Timer #0 started at tick 15444621250
15445191875: global: Timer #2 started at tick 15445191875
15445226250: global: Timer #2 stopped at tick 15445226250. Duration: 34375
15450849875: system.acctest.elem_matrix0_dma: Transfer completed in 6.709 us
15455755875: system.acctest.isp0_dma: SRC:0x0000000027010224, DST:0x00000000820bee00, LEN:49152
15456148125: global: Timer #0 stopped at tick 15456148125. Duration: 11526875
15456162500: global: Number of accelerators running = 7
15456278125: global: Timer #0 started at tick 15456278125
15457725625: global: Timer #0 stopped at tick 15457725625. Duration: 1447500
15457740000: global: Number of accelerators running = 7
15457856250: global: Timer #0 started at tick 15457856250
15459265000: global: Timer #0 stopped at tick 15459265000. Duration: 1408750
15459279375: global: Number of accelerators running = 7
15459393750: global: Timer #0 started at tick 15459393750
15459578750: global: DAG ID = 0
15459592500: global: Node ID = 1
15459611875: global: Node deadline difference = 24
15459624375: global: Predicted memory time / byte = 0 us/byte
15459636875: global: Predicted memory time = 0 us
15459649375: global: Predicted memory time / byte = 0 us/byte
15459661875: global: Predicted memory time = 0 us
15459674375: global: Predicted memory time / byte = 0 us/byte
15459686875: global: Predicted memory time = 0 us
15459699375: global: Predicted memory time / byte = 0 us/byte
15459711875: global: Predicted memory time = 0 us
15461235875: system.acctest.isp0_dma: Transfer completed in 5.48 us
********************************************************************************
system.acctest.elem_matrix1.compute
   ========= Performance Analysis =============
   Setup Time:                      10.136563seconds
   Simulation Time:                 298.290590seconds
   System Clock:                    1.000000GHz
   Transistor Latency:              1ns
   Runtime:                         10932 cycles
   Runtime:                         10.932000 us
   Stalls:                          1 cycles
   Executed Nodes:                  10930 cycles

********************************************************************************
   ========= Performance Analysis =================
   Setup Time:                      10136562503.000000ns
   Simulation Time:                 298290589775.000000ns
   System Clock:                    1.000000GHz
   Transistor Latency:              0ns
   Runtime:                         10932 cycles
   Runtime:                         0.000001 seconds
   Stalls:                          1 cycles
       Load Only:                   0 cycles
       Store Only:                  1 cycles
       Compute Only:                0 cycles
       Compute & Store:             0 cycles
       Load & Store:                0 cycles
       Load & Compute:              0 cycles
       Load & Compute & Store:      0 cycles
   Executed Nodes:                  10930 cycles
       Load Only:                   0 cycles
       Store Only:                  4 cycles
       Compute Only:                1 cycles
       Compute & Store:             21 cycles
       Load & Store:                0 cycles
       Load & Compute:              6 cycles
       Load & Compute & Store:      10898 cycles

   ========= Runtime FU's ========= (Max | Avg) ===
   Counter FU's:                      32 | 0.046838
   Integer Add/Sub FU's:               0 | 0.000000
   Integer Mul/Div FU's:               0 | 0.000000
   Integer Shifter FU's:               0 | 0.000000
   Integer Bitwise FU's:               1 | 0.000091
   Floating Point Float Add/Sub:       0 | 0.000000
   Floating Point Double Add/Sub:      0 | 0.000000
   Floating Point Float Mul/Div:      34 | 0.044252
   Floating Point Double Mul/Div:      0 | 0.000000
   0 Cycle Compare FU's:             102 | 0.046945
   GEP Instruction FU's:              96 | 0.046835
   Type Conversion FU's:               7 | 0.006782

   ========= Static FU's ==========================
   Counter FU's:                    0
   Integer Add/Sub FU's:            0
   Integer Mul/Div FU's:            0
   Integer Shifter FU's:            0
   Integer Bitwise FU's:            0
   Floating Point Float Add/Sub:    0
   Floating Point Double Add/Sub:   0
   Floating Point Float Mul/Div:    0
   Floating Point Double Mul/Div:   0
   0 Cycle Compare FU's:            0
   GEP Instruction FU's:            0
   Type Conversion FU's:            0
   Other:                           0

   ========= Pipeline Register Usage =============
   Total Number of Registers:       5641
   Max Register Usage Per Cycle:    137
   Avg Register Usage Per Cycle:    12.130992
   Avg Register Size (Bytes):       5.980606

   ========= Memory Configuration =================
   Cache Bus Ports:                 0
   Shared Cache Size:               0kB
   Local Bus Ports:                 0
   Private SPM Size:                256kB
   Private Read Ports:              0
   Private Write Ports:             0
   Private Read Bus Width:          64
   Private Write Bus Width:         64
       Memory Reads:                0
       Memory Writes:               0
   ========= Power Analysis ======================
   FU Leakage Power:                0.045377 mW 
   FU Dynamic Power:                0.142576 mW 
   FU Total Power:                  0.187953 mW 

   Registers Leakage Power:          0.005281 mW 
   Registers Dynamic Power:          0.015326 mW 
       Register Reads (Bits):        132616
       Register Writes (Bits):       133658
   Registers Total Power:            0.020607 mW

   SPM Leakage Power:               0.104100 mW
   SPM Read Dynamic Power:          2.785289 mW
   SPM Write Dynamic Power:         2.044305 mW
   SPM Total Power:                 4.933694 mW

   Cache Leakage Power:             0.000000 mW
   Cache Read Dynamic Power:        0.000000 mW
   Cache Write Dynamic Power:       0.000000 mW
   Cache Total Power:               0.000000 mW

   Accelerator Power:               0.208559 mW
   Accelerator Power (SPM):         5.142254 mW
   Accelerator Power (Cache):       0.208559 mW

   ========= Area Analysis =======================
   FU Area:                         5472.068359 um^2 (0.005472 mm^2)
   Register Area:                   429.271088 um^2 (0.000429 mm^2)
   SPM Area:                        2177.365505 um^2 (0.002177 mm^2)
   Cache Area:                      0.000000 um^2 (0.000000 mm^2)

   Accelerator Area:                5901.339355 um^2 (0.005901 mm^2)
   Accelerator Area (SPM):          8078.704860 um^2 (0.008079 mm^2)
   Accelerator Area (Cache):        5901.339355 um^2 (0.005901 mm^2)

   ========= SPM Resizing  =======================
   SPM Optimized Leakage Power:     0.004248 mW
   SPM Opt Area:                    178.524902 um^2

********************************************************************************
system.acctest.elem_matrix2.compute
   ========= Performance Analysis =============
   Setup Time:                      6.959798seconds
   Simulation Time:                 269.250816seconds
   System Clock:                    1.000000GHz
   Transistor Latency:              1ns
   Runtime:                         10932 cycles
   Runtime:                         10.932000 us
   Stalls:                          1 cycles
   Executed Nodes:                  10930 cycles

********************************************************************************
   ========= Performance Analysis =================
   Setup Time:                      6959797647.000000ns
   Simulation Time:                 269250815773.000000ns
   System Clock:                    1.000000GHz
   Transistor Latency:              0ns
   Runtime:                         10932 cycles
   Runtime:                         0.000001 seconds
   Stalls:                          1 cycles
       Load Only:                   0 cycles
       Store Only:                  1 cycles
       Compute Only:                0 cycles
       Compute & Store:             0 cycles
       Load & Store:                0 cycles
       Load & Compute:              0 cycles
       Load & Compute & Store:      0 cycles
   Executed Nodes:                  10930 cycles
       Load Only:                   0 cycles
       Store Only:                  4 cycles
       Compute Only:                1 cycles
       Compute & Store:             21 cycles
       Load & Store:                0 cycles
       Load & Compute:              6 cycles
       Load & Compute & Store:      10898 cycles

   ========= Runtime FU's ========= (Max | Avg) ===
   Counter FU's:                      32 | 0.046838
   Integer Add/Sub FU's:               0 | 0.000000
   Integer Mul/Div FU's:               0 | 0.000000
   Integer Shifter FU's:               0 | 0.000000
   Integer Bitwise FU's:               1 | 0.000091
   Floating Point Float Add/Sub:       0 | 0.000000
   Floating Point Double Add/Sub:      0 | 0.000000
   Floating Point Float Mul/Div:      34 | 0.044252
   Floating Point Double Mul/Div:      0 | 0.000000
   0 Cycle Compare FU's:             102 | 0.046945
   GEP Instruction FU's:              96 | 0.046835
   Type Conversion FU's:               7 | 0.006782

   ========= Static FU's ==========================
   Counter FU's:                    0
   Integer Add/Sub FU's:            0
   Integer Mul/Div FU's:            0
   Integer Shifter FU's:            0
   Integer Bitwise FU's:            0
   Floating Point Float Add/Sub:    0
   Floating Point Double Add/Sub:   0
   Floating Point Float Mul/Div:    0
   Floating Point Double Mul/Div:   0
   0 Cycle Compare FU's:            0
   GEP Instruction FU's:            0
   Type Conversion FU's:            0
   Other:                           0

   ========= Pipeline Register Usage =============
   Total Number of Registers:       5641
   Max Register Usage Per Cycle:    137
   Avg Register Usage Per Cycle:    12.130992
   Avg Register Size (Bytes):       5.980606

   ========= Memory Configuration =================
   Cache Bus Ports:                 0
   Shared Cache Size:               0kB
   Local Bus Ports:                 0
   Private SPM Size:                256kB
   Private Read Ports:              0
   Private Write Ports:             0
   Private Read Bus Width:          64
   Private Write Bus Width:         64
       Memory Reads:                0
       Memory Writes:               0
   ========= Power Analysis ======================
   FU Leakage Power:                0.045377 mW 
   FU Dynamic Power:                0.142576 mW 
   FU Total Power:                  0.187953 mW 

   Registers Leakage Power:          0.005281 mW 
   Registers Dynamic Power:          0.015326 mW 
       Register Reads (Bits):        132616
       Register Writes (Bits):       133658
   Registers Total Power:            0.020607 mW

   SPM Leakage Power:               0.104100 mW
   SPM Read Dynamic Power:          2.785289 mW
   SPM Write Dynamic Power:         2.044305 mW
   SPM Total Power:                 4.933694 mW

   Cache Leakage Power:             0.000000 mW
   Cache Read Dynamic Power:        0.000000 mW
   Cache Write Dynamic Power:       0.000000 mW
   Cache Total Power:               0.000000 mW

   Accelerator Power:               0.208559 mW
   Accelerator Power (SPM):         5.142254 mW
   Accelerator Power (Cache):       0.208559 mW

   ========= Area Analysis =======================
   FU Area:                         5472.068359 um^2 (0.005472 mm^2)
   Register Area:                   429.271088 um^2 (0.000429 mm^2)
   SPM Area:                        2177.365505 um^2 (0.002177 mm^2)
   Cache Area:                      0.000000 um^2 (0.000000 mm^2)

   Accelerator Area:                5901.339355 um^2 (0.005901 mm^2)
   Accelerator Area (SPM):          8078.704860 um^2 (0.008079 mm^2)
   Accelerator Area (Cache):        5901.339355 um^2 (0.005901 mm^2)

   ========= SPM Resizing  =======================
   SPM Optimized Leakage Power:     0.004248 mW
   SPM Opt Area:                    178.524902 um^2

15470208750: system.acctest.grayscale0_dma: SRC:0x00000000820bee00, DST:0x0000000025000020, LEN:49152
15470412500: global: Timer #0 stopped at tick 15470412500. Duration: 11018750
15470426875: global: Number of accelerators running = 7
15470551875: global: Timer #0 started at tick 15470551875
15471864000: system.acctest.convolution0_dma: SRC:0x0000000082018780, DST:0x0000000022030020, LEN:100
15471983000: system.acctest.convolution0_dma: Transfer completed in 0.119 us
15472105000: global: Timer #0 stopped at tick 15472105000. Duration: 1553125
15472119375: global: Number of accelerators running = 7
15472240000: global: Timer #0 started at tick 15472240000
15473590000: global: Timer #0 stopped at tick 15473590000. Duration: 1350000
15473604375: global: Number of accelerators running = 7
15473721250: global: Timer #0 started at tick 15473721250
15473892500: global: DAG ID = 4
15473906250: global: Node ID = 1
15473925625: global: Node deadline difference = -2276
15473938125: global: Predicted memory time / byte = 0 us/byte
15473950625: global: Predicted memory time = 0 us
15473963125: global: Predicted memory time / byte = 0 us/byte
15473975625: global: Predicted memory time = 0 us
15473988125: global: Predicted memory time / byte = 0 us/byte
15474000625: global: Predicted memory time = 0 us
15474013125: global: Predicted memory time / byte = 0 us/byte
15474025625: global: Predicted memory time = 0 us
15479062750: system.acctest.grayscale0_dma: Transfer completed in 8.854 us
********************************************************************************
system.acctest.elem_matrix3.compute
   ========= Performance Analysis =============
   Setup Time:                      9.906234seconds
   Simulation Time:                 173.052233seconds
   System Clock:                    1.000000GHz
   Transistor Latency:              1ns
   Runtime:                         10932 cycles
   Runtime:                         10.932000 us
   Stalls:                          1 cycles
   Executed Nodes:                  10930 cycles

********************************************************************************
   ========= Performance Analysis =================
   Setup Time:                      9906233807.000000ns
   Simulation Time:                 173052233161.000000ns
   System Clock:                    1.000000GHz
   Transistor Latency:              0ns
   Runtime:                         10932 cycles
   Runtime:                         0.000001 seconds
   Stalls:                          1 cycles
       Load Only:                   0 cycles
       Store Only:                  1 cycles
       Compute Only:                0 cycles
       Compute & Store:             0 cycles
       Load & Store:                0 cycles
       Load & Compute:              0 cycles
       Load & Compute & Store:      0 cycles
   Executed Nodes:                  10930 cycles
       Load Only:                   0 cycles
       Store Only:                  4 cycles
       Compute Only:                1 cycles
       Compute & Store:             21 cycles
       Load & Store:                0 cycles
       Load & Compute:              6 cycles
       Load & Compute & Store:      10898 cycles

   ========= Runtime FU's ========= (Max | Avg) ===
   Counter FU's:                      32 | 0.046838
   Integer Add/Sub FU's:               0 | 0.000000
   Integer Mul/Div FU's:               0 | 0.000000
   Integer Shifter FU's:               0 | 0.000000
   Integer Bitwise FU's:               1 | 0.000091
   Floating Point Float Add/Sub:       0 | 0.000000
   Floating Point Double Add/Sub:      0 | 0.000000
   Floating Point Float Mul/Div:      34 | 0.044252
   Floating Point Double Mul/Div:      0 | 0.000000
   0 Cycle Compare FU's:             102 | 0.046945
   GEP Instruction FU's:              96 | 0.046835
   Type Conversion FU's:               7 | 0.006782

   ========= Static FU's ==========================
   Counter FU's:                    0
   Integer Add/Sub FU's:            0
   Integer Mul/Div FU's:            0
   Integer Shifter FU's:            0
   Integer Bitwise FU's:            0
   Floating Point Float Add/Sub:    0
   Floating Point Double Add/Sub:   0
   Floating Point Float Mul/Div:    0
   Floating Point Double Mul/Div:   0
   0 Cycle Compare FU's:            0
   GEP Instruction FU's:            0
   Type Conversion FU's:            0
   Other:                           0

   ========= Pipeline Register Usage =============
   Total Number of Registers:       5641
   Max Register Usage Per Cycle:    137
   Avg Register Usage Per Cycle:    12.130992
   Avg Register Size (Bytes):       5.980606

   ========= Memory Configuration =================
   Cache Bus Ports:                 0
   Shared Cache Size:               0kB
   Local Bus Ports:                 0
   Private SPM Size:                256kB
   Private Read Ports:              0
   Private Write Ports:             0
   Private Read Bus Width:          64
   Private Write Bus Width:         64
       Memory Reads:                0
       Memory Writes:               0
   ========= Power Analysis ======================
   FU Leakage Power:                0.045377 mW 
   FU Dynamic Power:                0.142576 mW 
   FU Total Power:                  0.187953 mW 

   Registers Leakage Power:          0.005281 mW 
   Registers Dynamic Power:          0.015326 mW 
       Register Reads (Bits):        132616
       Register Writes (Bits):       133658
   Registers Total Power:            0.020607 mW

   SPM Leakage Power:               0.104100 mW
   SPM Read Dynamic Power:          2.785289 mW
   SPM Write Dynamic Power:         2.044305 mW
   SPM Total Power:                 4.933694 mW

   Cache Leakage Power:             0.000000 mW
   Cache Read Dynamic Power:        0.000000 mW
   Cache Write Dynamic Power:       0.000000 mW
   Cache Total Power:               0.000000 mW

   Accelerator Power:               0.208559 mW
   Accelerator Power (SPM):         5.142254 mW
   Accelerator Power (Cache):       0.208559 mW

   ========= Area Analysis =======================
   FU Area:                         5472.068359 um^2 (0.005472 mm^2)
   Register Area:                   429.271088 um^2 (0.000429 mm^2)
   SPM Area:                        2177.365505 um^2 (0.002177 mm^2)
   Cache Area:                      0.000000 um^2 (0.000000 mm^2)

   Accelerator Area:                5901.339355 um^2 (0.005901 mm^2)
   Accelerator Area (SPM):          8078.704860 um^2 (0.008079 mm^2)
   Accelerator Area (Cache):        5901.339355 um^2 (0.005901 mm^2)

   ========= SPM Resizing  =======================
   SPM Optimized Leakage Power:     0.004248 mW
   SPM Opt Area:                    178.524902 um^2

15487525875: system.acctest.elem_matrix0_dma: SRC:0x0000000083335fc0, DST:0x0000000024000020, LEN:65536
15487735625: global: Timer #0 stopped at tick 15487735625. Duration: 14014375
15487746875: global: Number of accelerators running = 7
15487865000: global: Timer #0 started at tick 15487865000
15488038750: global: DAG ID = 1
15488052500: global: Node ID = 0
15488071875: global: Node deadline difference = 90
15488084375: global: Predicted memory time / byte = 0 us/byte
15488096875: global: Predicted memory time = 0 us
15488109375: global: Predicted memory time / byte = 0 us/byte
15488121875: global: Predicted memory time = 0 us
15488134375: global: Predicted memory time / byte = 0 us/byte
15488146875: global: Predicted memory time = 0 us
15488159375: global: Predicted memory time / byte = 0 us/byte
15488171875: global: Predicted memory time = 0 us
15492663000: system.acctest.isp0_dma: SRC:0x000000008211cd00, DST:0x0000000027000020, LEN:16900
15492841875: global: Timer #0 stopped at tick 15492841875. Duration: 4976875
15492856250: global: Number of accelerators running = 7
15492978750: global: Timer #0 started at tick 15492978750
15493630625: global: Timer #2 started at tick 15493630625
15493663125: global: Timer #2 stopped at tick 15493663125. Duration: 32500
15499719000: system.acctest.isp0_dma: Transfer completed in 7.056 us
15503428875: system.acctest.elem_matrix0_dma: Transfer completed in 15.903 us
15506874500: system.acctest.elem_matrix1_dma: SRC:0x0000000024120020, DST:0x0000000082260e00, LEN:65536
15507223125: global: Timer #0 stopped at tick 15507223125. Duration: 14244375
15507237500: global: Number of accelerators running = 7
15507363125: global: Timer #0 started at tick 15507363125
15507801875: global: Timer #2 started at tick 15507801875
15507834375: global: Timer #2 stopped at tick 15507834375. Duration: 32500
15513624500: system.acctest.elem_matrix1_dma: Transfer completed in 6.75 us
15521492375: system.acctest.elem_matrix2_dma: SRC:0x0000000024220020, DST:0x0000000082a3b600, LEN:65536
15521841250: global: Timer #0 stopped at tick 15521841250. Duration: 14478125
15521855625: global: Number of accelerators running = 7
15521971875: global: Timer #0 started at tick 15521971875
15523351875: global: Timer #0 stopped at tick 15523351875. Duration: 1380000
15523366250: global: Number of accelerators running = 7
15523483125: global: Timer #0 started at tick 15523483125
15524198750: global: Timer #0 stopped at tick 15524198750. Duration: 715625
15524213125: global: Number of accelerators running = 7
15524330000: global: Timer #0 started at tick 15524330000
15524776875: global: Timer #2 started at tick 15524776875
15524809375: global: Timer #2 stopped at tick 15524809375. Duration: 32500
15528032375: system.acctest.elem_matrix2_dma: Transfer completed in 6.54 us
********************************************************************************
[...]
   System Clock:                    1.000000GHz
   Transistor Latency:              1ns
   Runtime:                         10932 cycles
   Runtime:                         10.932000 us
   Stalls:                          1 cycles
   Executed Nodes:                  10930 cycles

********************************************************************************
   ========= Performance Analysis =================
   Setup Time:                      3639266219.000000ns
   Simulation Time:                 75556350490.000000ns
   System Clock:                    1.000000GHz
   Transistor Latency:              0ns
   Runtime:                         10932 cycles
   Runtime:                         0.000001 seconds
   Stalls:                          1 cycles
       Load Only:                   0 cycles
       Store Only:                  1 cycles
       Compute Only:                0 cycles
       Compute & Store:             0 cycles
       Load & Store:                0 cycles
       Load & Compute:              0 cycles
       Load & Compute & Store:      0 cycles
   Executed Nodes:                  10930 cycles
       Load Only:                   0 cycles
       Store Only:                  4 cycles
       Compute Only:                1 cycles
       Compute & Store:             21 cycles
       Load & Store:                0 cycles
       Load & Compute:              6 cycles
       Load & Compute & Store:      10898 cycles

   ========= Runtime FU's ========= (Max | Avg) ===
   Counter FU's:                      32 | 0.046838
   Integer Add/Sub FU's:               0 | 0.000000
   Integer Mul/Div FU's:               0 | 0.000000
   Integer Shifter FU's:               0 | 0.000000
   Integer Bitwise FU's:               1 | 0.000091
   Floating Point Float Add/Sub:       0 | 0.000000
   Floating Point Double Add/Sub:      0 | 0.000000
   Floating Point Float Mul/Div:      34 | 0.044252
   Floating Point Double Mul/Div:      0 | 0.000000
   0 Cycle Compare FU's:             102 | 0.046945
   GEP Instruction FU's:              96 | 0.046835
   Type Conversion FU's:               7 | 0.006782

   ========= Static FU's ==========================
   Counter FU's:                    0
   Integer Add/Sub FU's:            0
   Integer Mul/Div FU's:            0
   Integer Shifter FU's:            0
   Integer Bitwise FU's:            0
   Floating Point Float Add/Sub:    0
   Floating Point Double Add/Sub:   0
   Floating Point Float Mul/Div:    0
   Floating Point Double Mul/Div:   0
   0 Cycle Compare FU's:            0
   GEP Instruction FU's:            0
   Type Conversion FU's:            0
   Other:                           0

   ========= Pipeline Register Usage =============
   Total Number of Registers:       5641
   Max Register Usage Per Cycle:    137
   Avg Register Usage Per Cycle:    12.130992
   Avg Register Size (Bytes):       5.980606

   ========= Memory Configuration =================
   Cache Bus Ports:                 0
   Shared Cache Size:               0kB
   Local Bus Ports:                 0
   Private SPM Size:                256kB
   Private Read Ports:              0
   Private Write Ports:             0
   Private Read Bus Width:          64
   Private Write Bus Width:         64
       Memory Reads:                0
       Memory Writes:               0
   ========= Power Analysis ======================
   FU Leakage Power:                0.045377 mW 
   FU Dynamic Power:                0.142576 mW 
   FU Total Power:                  0.187953 mW 

   Registers Leakage Power:          0.005281 mW 
   Registers Dynamic Power:          0.015326 mW 
       Register Reads (Bits):        132616
       Register Writes (Bits):       133658
   Registers Total Power:            0.020607 mW

   SPM Leakage Power:               0.104100 mW
   SPM Read Dynamic Power:          25.482801 mW
   SPM Write Dynamic Power:         19.599794 mW
   SPM Total Power:                 45.186695 mW

   Cache Leakage Power:             0.000000 mW
   Cache Read Dynamic Power:        0.000000 mW
   Cache Write Dynamic Power:       0.000000 mW
   Cache Total Power:               0.000000 mW

   Accelerator Power:               0.208559 mW
   Accelerator Power (SPM):         45.395255 mW
   Accelerator Power (Cache):       0.208559 mW

   ========= Area Analysis =======================
   FU Area:                         5472.068359 um^2 (0.005472 mm^2)
   Register Area:                   429.271088 um^2 (0.000429 mm^2)
   SPM Area:                        2177.365505 um^2 (0.002177 mm^2)
   Cache Area:                      0.000000 um^2 (0.000000 mm^2)

   Accelerator Area:                5901.339355 um^2 (0.005901 mm^2)
   Accelerator Area (SPM):          8078.704860 um^2 (0.008079 mm^2)
   Accelerator Area (Cache):        5901.339355 um^2 (0.005901 mm^2)

   ========= SPM Resizing  =======================
   SPM Optimized Leakage Power:     0.004248 mW
   SPM Opt Area:                    178.524902 um^2

48548315625: global: Timer #0 started at tick 48548315625
48561614500: system.acctest.elem_matrix0_dma: SRC:0x0000000024020020, DST:0x000000008210cb80, LEN:65536
48561958125: global: Timer #0 stopped at tick 48561958125. Duration: 13642500
48561972500: global: Number of accelerators running = 2
48567896500: system.acctest.elem_matrix0_dma: Transfer completed in 6.282 us
48567970625: global: Timer #0 started at tick 48567970625
48568140625: global: DAG ID = 2
48568154375: global: Node ID = 21
48568173125: global: DAG execution time = 33465
48568186250: global: DAG deadline difference = 16798
48568204375: global: Node deadline difference = 16798
48568216875: global: Predicted memory time / byte = 0 us/byte
48568229375: global: Predicted memory time = 0 us
48568241875: global: Predicted memory time / byte = 0 us/byte
48568254375: global: Predicted memory time = 0 us
48568266875: global: Predicted memory time / byte = 0 us/byte
48568279375: global: Predicted memory time = 0 us
48568291875: global: Predicted memory time / byte = 0 us/byte
48568304375: global: Predicted memory time = 0 us
48568395625: global: Timer #0 stopped at tick 48568395625. Duration: 425000
48568410000: global: Number of accelerators running = 1
********************************************************************************
system.acctest.convolution1.compute
   ========= Performance Analysis =============
   Setup Time:                      0.354925seconds
   Simulation Time:                 522.835108seconds
   System Clock:                    1.000000GHz
   Transistor Latency:              1ns
   Runtime:                         1545605 cycles
   Runtime:                         1545.605000 us
   Stalls:                          0 cycles
   Executed Nodes:                  1545604 cycles

********************************************************************************
   ========= Performance Analysis =================
   Setup Time:                      354924807.000000ns
   Simulation Time:                 522835108408.000000ns
   System Clock:                    1.000000GHz
   Transistor Latency:              0ns
   Runtime:                         1545605 cycles
   Runtime:                         0.000155 seconds
   Stalls:                          0 cycles
       Load Only:                   0 cycles
       Store Only:                  0 cycles
       Compute Only:                0 cycles
       Compute & Store:             0 cycles
       Load & Store:                0 cycles
       Load & Compute:              0 cycles
       Load & Compute & Store:      0 cycles
   Executed Nodes:                  1545604 cycles
       Load Only:                   0 cycles
       Store Only:                  0 cycles
       Compute Only:                1127274 cycles
       Compute & Store:             16373 cycles
       Load & Store:                0 cycles
       Load & Compute:              401946 cycles
       Load & Compute & Store:      11 cycles

   ========= Runtime FU's ========= (Max | Avg) ===
   Counter FU's:                       3 | 0.112298
   Integer Add/Sub FU's:               4 | 0.211564
   Integer Mul/Div FU's:               1 | 0.052505
   Integer Shifter FU's:              10 | 0.005268
   Integer Bitwise FU's:               2 | 0.184266
   Floating Point Float Add/Sub:       5 | 0.208012
   Floating Point Double Add/Sub:      0 | 0.000000
   Floating Point Float Mul/Div:       4 | 0.065060
   Floating Point Double Mul/Div:      0 | 0.000000
   0 Cycle Compare FU's:              40 | 0.145953
   GEP Instruction FU's:               4 | 0.132683
   Type Conversion FU's:               7 | 0.186618

   ========= Static FU's ==========================
   Counter FU's:                    0
   Integer Add/Sub FU's:            0
   Integer Mul/Div FU's:            0
   Integer Shifter FU's:            0
   Integer Bitwise FU's:            0
   Floating Point Float Add/Sub:    0
   Floating Point Double Add/Sub:   0
   Floating Point Float Mul/Div:    0
   Floating Point Double Mul/Div:   0
   0 Cycle Compare FU's:            0
   GEP Instruction FU's:            0
   Type Conversion FU's:            0
   Other:                           0

   ========= Pipeline Register Usage =============
   Total Number of Registers:       1702
   Max Register Usage Per Cycle:    20
   Avg Register Usage Per Cycle:    6.348199
   Avg Register Size (Bytes):       5.569148

   ========= Memory Configuration =================
   Cache Bus Ports:                 0
   Shared Cache Size:               0kB
   Local Bus Ports:                 0
   Private SPM Size:                192kB
   Private Read Ports:              0
   Private Write Ports:             0
   Private Read Bus Width:          64
   Private Write Bus Width:         64
       Memory Reads:                0
       Memory Writes:               0
   ========= Power Analysis ======================
   FU Leakage Power:                0.196912 mW 
   FU Dynamic Power:                2743.172852 mW 
   FU Total Power:                  2743.369873 mW 

   Registers Leakage Power:          0.002459 mW 
   Registers Dynamic Power:          75.251152 mW 
       Register Reads (Bits):        9811808
       Register Writes (Bits):       10049727
   Registers Total Power:            75.253609 mW

   SPM Leakage Power:               0.078311 mW
   SPM Read Dynamic Power:          47.973513 mW
   SPM Write Dynamic Power:         7.306241 mW
   SPM Total Power:                 55.358065 mW

   Cache Leakage Power:             0.000000 mW
   Cache Read Dynamic Power:        0.000000 mW
   Cache Write Dynamic Power:       0.000000 mW
   Cache Total Power:               0.000000 mW

   Accelerator Power:               2818.623535 mW
   Accelerator Power (SPM):         2873.981600 mW
   Accelerator Power (Cache):       2818.623535 mW

   ========= Area Analysis =======================
   FU Area:                         22931.867188 um^2 (0.022932 mm^2)
   Register Area:                   199.868912 um^2 (0.000200 mm^2)
   SPM Area:                        1748.188735 um^2 (0.001748 mm^2)
   Cache Area:                      0.000000 um^2 (0.000000 mm^2)

   Accelerator Area:                23131.736328 um^2 (0.023132 mm^2)
   Accelerator Area (SPM):          24879.925063 um^2 (0.024880 mm^2)
   Accelerator Area (Cache):        23131.736328 um^2 (0.023132 mm^2)

   ========= SPM Resizing  =======================
   SPM Optimized Leakage Power:     0.002053 mW
   SPM Opt Area:                    145.024971 um^2

48636041250: global: Timer #0 started at tick 48636041250
48636206875: global: Timer #2 started at tick 48636206875
48636236875: global: Timer #2 stopped at tick 48636236875. Duration: 30000
48636463125: global: DAG ID = 3
48636476875: global: Node ID = 20
48636496875: global: Node deadline difference = 16923
48636509375: global: Predicted memory time / byte = 0 us/byte
48636521875: global: Predicted memory time = 0 us
48636534375: global: Predicted memory time / byte = 0 us/byte
48636546875: global: Predicted memory time = 0 us
48636559375: global: Predicted memory time / byte = 0 us/byte
48636571875: global: Predicted memory time = 0 us
48636584375: global: Predicted memory time / byte = 0 us/byte
48636596875: global: Predicted memory time = 0 us
48650040875: system.acctest.elem_matrix0_dma: SRC:0x000000008216ecc0, DST:0x0000000024000020, LEN:65536
48650239375: global: Timer #0 stopped at tick 48650239375. Duration: 14198125
48650253125: global: Number of accelerators running = 1
48661985875: system.acctest.elem_matrix0_dma: Transfer completed in 11.945 us
48662071250: global: Timer #0 started at tick 48662071250
48662930875: system.acctest.elem_matrix0_dma: SRC:0x0000000022120020, DST:0x0000000024010020, LEN:65536
48663144375: global: Timer #0 stopped at tick 48663144375. Duration: 1073125
48663158750: global: Number of accelerators running = 1
48673191875: system.acctest.elem_matrix0_dma: Transfer completed in 10.261 us
48673265625: global: Timer #0 started at tick 48673265625
48674588125: global: Timer #0 stopped at tick 48674588125. Duration: 1322500
48674602500: global: Number of accelerators running = 1
********************************************************************************
system.acctest.elem_matrix0.compute
   ========= Performance Analysis =============
   Setup Time:                      5.172988seconds
   Simulation Time:                 74.513152seconds
   System Clock:                    1.000000GHz
   Transistor Latency:              1ns
   Runtime:                         10932 cycles
   Runtime:                         10.932000 us
   Stalls:                          1 cycles
   Executed Nodes:                  10930 cycles

********************************************************************************
   ========= Performance Analysis =================
   Setup Time:                      5172987919.000000ns
   Simulation Time:                 74513152385.000000ns
   System Clock:                    1.000000GHz
   Transistor Latency:              0ns
   Runtime:                         10932 cycles
   Runtime:                         0.000001 seconds
   Stalls:                          1 cycles
       Load Only:                   0 cycles
       Store Only:                  1 cycles
       Compute Only:                0 cycles
       Compute & Store:             0 cycles
       Load & Store:                0 cycles
       Load & Compute:              0 cycles
       Load & Compute & Store:      0 cycles
   Executed Nodes:                  10930 cycles
       Load Only:                   0 cycles
       Store Only:                  4 cycles
       Compute Only:                1 cycles
       Compute & Store:             21 cycles
       Load & Store:                0 cycles
       Load & Compute:              6 cycles
       Load & Compute & Store:      10898 cycles

   ========= Runtime FU's ========= (Max | Avg) ===
   Counter FU's:                      32 | 0.046838
   Integer Add/Sub FU's:               0 | 0.000000
   Integer Mul/Div FU's:               0 | 0.000000
   Integer Shifter FU's:               0 | 0.000000
   Integer Bitwise FU's:               1 | 0.000091
   Floating Point Float Add/Sub:       0 | 0.000000
   Floating Point Double Add/Sub:      0 | 0.000000
   Floating Point Float Mul/Div:      34 | 0.044252
   Floating Point Double Mul/Div:      0 | 0.000000
   0 Cycle Compare FU's:             102 | 0.046945
   GEP Instruction FU's:              96 | 0.046835
   Type Conversion FU's:               7 | 0.006782

   ========= Static FU's ==========================
   Counter FU's:                    0
   Integer Add/Sub FU's:            0
   Integer Mul/Div FU's:            0
   Integer Shifter FU's:            0
   Integer Bitwise FU's:            0
   Floating Point Float Add/Sub:    0
   Floating Point Double Add/Sub:   0
   Floating Point Float Mul/Div:    0
   Floating Point Double Mul/Div:   0
   0 Cycle Compare FU's:            0
   GEP Instruction FU's:            0
   Type Conversion FU's:            0
   Other:                           0

   ========= Pipeline Register Usage =============
   Total Number of Registers:       5641
   Max Register Usage Per Cycle:    137
   Avg Register Usage Per Cycle:    12.130992
   Avg Register Size (Bytes):       5.980606

   ========= Memory Configuration =================
   Cache Bus Ports:                 0
   Shared Cache Size:               0kB
   Local Bus Ports:                 0
   Private SPM Size:                256kB
   Private Read Ports:              0
   Private Write Ports:             0
   Private Read Bus Width:          64
   Private Write Bus Width:         64
       Memory Reads:                0
       Memory Writes:               0
   ========= Power Analysis ======================
   FU Leakage Power:                0.045377 mW 
   FU Dynamic Power:                0.142576 mW 
   FU Total Power:                  0.187953 mW 

   Registers Leakage Power:          0.005281 mW 
   Registers Dynamic Power:          0.015326 mW 
       Register Reads (Bits):        132616
       Register Writes (Bits):       133658
   Registers Total Power:            0.020607 mW

   SPM Leakage Power:               0.104100 mW
   SPM Read Dynamic Power:          25.582968 mW
   SPM Write Dynamic Power:         19.651272 mW
   SPM Total Power:                 45.338341 mW

   Cache Leakage Power:             0.000000 mW
   Cache Read Dynamic Power:        0.000000 mW
   Cache Write Dynamic Power:       0.000000 mW
   Cache Total Power:               0.000000 mW

   Accelerator Power:               0.208559 mW
   Accelerator Power (SPM):         45.546900 mW
   Accelerator Power (Cache):       0.208559 mW

   ========= Area Analysis =======================
   FU Area:                         5472.068359 um^2 (0.005472 mm^2)
   Register Area:                   429.271088 um^2 (0.000429 mm^2)
   SPM Area:                        2177.365505 um^2 (0.002177 mm^2)
   Cache Area:                      0.000000 um^2 (0.000000 mm^2)

   Accelerator Area:                5901.339355 um^2 (0.005901 mm^2)
   Accelerator Area (SPM):          8078.704860 um^2 (0.008079 mm^2)
   Accelerator Area (Cache):        5901.339355 um^2 (0.005901 mm^2)

   ========= SPM Resizing  =======================
   SPM Optimized Leakage Power:     0.004248 mW
   SPM Opt Area:                    178.524902 um^2

48685385625: global: Timer #0 started at tick 48685385625
48698665875: system.acctest.elem_matrix0_dma: SRC:0x0000000024020020, DST:0x000000008216ecc0, LEN:65536
48699009375: global: Timer #0 stopped at tick 48699009375. Duration: 13623750
48699023750: global: Number of accelerators running = 1
48704985875: system.acctest.elem_matrix0_dma: Transfer completed in 6.32 us
48705060625: global: Timer #0 started at tick 48705060625
48705236250: global: DAG ID = 3
48705250000: global: Node ID = 21
48705268750: global: DAG execution time = 33602
48705281875: global: DAG deadline difference = 16935
48705300000: global: Node deadline difference = 16935
48705312500: global: Predicted memory time / byte = 0 us/byte
48705325000: global: Predicted memory time = 0 us
48705337500: global: Predicted memory time / byte = 0 us/byte
48705350000: global: Predicted memory time = 0 us
48705362500: global: Predicted memory time / byte = 0 us/byte
48705375000: global: Predicted memory time = 0 us
48705387500: global: Predicted memory time / byte = 0 us/byte
48705400000: global: Predicted memory time = 0 us
48705491250: global: Timer #0 stopped at tick 48705491250. Duration: 430625
48705505625: global: Number of accelerators running = 0
48705581875: global: Number of forwards = 164
48705717500: global: Number of colocations = 140
48705736875: global: Number of DAG deadlines met = 0
48705756875: global: Number of node deadlines met = 74
48705795625: global: Total predicted compute time = 0 us
Exiting @ tick 48705991875 because m5_exit instruction encountered
