
---------- Begin Simulation Statistics ----------
final_tick                                61909268125                       # Number of ticks from beginning of simulation (restored from checkpoints and never reset)
host_inst_rate                                    468                       # Simulator instruction rate (inst/s)
host_mem_usage                               26048928                       # Number of bytes of host memory used
host_op_rate                                      479                       # Simulator op (including micro ops) rate (op/s)
host_seconds                                134996.08                       # Real time elapsed on the host
host_tick_rate                                 243496                       # Simulator tick rate (ticks/s)
sim_freq                                 1000000000000                       # Frequency of simulated ticks
sim_insts                                    63226019                       # Number of instructions simulated
sim_ops                                      64637986                       # Number of ops (including micro ops) simulated
sim_seconds                                  0.032871                       # Number of seconds simulated
sim_ticks                                 32871009375                       # Number of ticks simulated
system.acctest.coherency_bus.snoop_filter.hit_multi_requests            0                       # Number of requests hitting in the snoop filter with multiple (>1) holders of the requested data.
system.acctest.coherency_bus.snoop_filter.hit_multi_snoops            0                       # Number of snoops hitting in the snoop filter with multiple (>1) holders of the requested data.
system.acctest.coherency_bus.snoop_filter.hit_single_requests            0                       # Number of requests hitting in the snoop filter with a single holder of the requested data.
system.acctest.coherency_bus.snoop_filter.hit_single_snoops            0                       # Number of snoops hitting in the snoop filter with a single holder of the requested data.
system.acctest.coherency_bus.snoop_filter.tot_requests            0                       # Total number of requests made to the snoop filter.
system.acctest.coherency_bus.snoop_filter.tot_snoops            0                       # Total number of snoops made to the snoop filter.
system.cf0.dma_read_bytes                           0                       # Number of bytes transfered via DMA reads (not PRD).
system.cf0.dma_read_full_pages                      0                       # Number of full page size DMA reads (not PRD).
system.cf0.dma_read_txs                             0                       # Number of DMA read transactions (not PRD).
system.cf0.dma_write_bytes                          0                       # Number of bytes transfered via DMA writes.
system.cf0.dma_write_full_pages                     0                       # Number of full page size DMA writes.
system.cf0.dma_write_txs                            0                       # Number of DMA write transactions.
system.cpu.branchPred.BTBCorrect                    0                       # Number of correct BTB predictions (this stat may not work properly.
system.cpu.branchPred.BTBHitPct             99.515401                       # BTB Hit Percentage
system.cpu.branchPred.BTBHits                 4482309                       # Number of BTB hits
system.cpu.branchPred.BTBLookups              4504136                       # Number of BTB lookups
system.cpu.branchPred.RASInCorrect                  8                       # Number of incorrect RAS predictions.
system.cpu.branchPred.condIncorrect             24604                       # Number of conditional branches incorrect
system.cpu.branchPred.condPredicted           4575291                       # Number of conditional branches predicted
system.cpu.branchPred.indirectHits               9334                       # Number of indirect target hits.
system.cpu.branchPred.indirectLookups           10341                       # Number of indirect predictor lookups.
system.cpu.branchPred.indirectMisses             1007                       # Number of indirect misses.
system.cpu.branchPred.lookups                 4622829                       # Number of BP lookups
system.cpu.branchPred.usedRAS                    5815                       # Number of times the RAS was used to get a target.
system.cpu.branchPredindirectMispredicted         4879                       # Number of mispredicted indirect branches.
system.cpu.committedInsts                    18547106                       # Number of instructions committed
system.cpu.committedOps                      18693822                       # Number of ops (including micro ops) committed
system.cpu.cpi                               2.835678                       # CPI: cycles per instruction
system.cpu.discardedOps                         89935                       # Number of ops (including micro ops) which were discarded before commit
system.cpu.dtb.accesses                             0                       # DTB accesses
system.cpu.dtb.align_faults                         0                       # Number of TLB faults due to alignment restrictions
system.cpu.dtb.domain_faults                        0                       # Number of TLB faults due to domain restrictions
system.cpu.dtb.flush_entries                        0                       # Number of entries that have been flushed from TLB
system.cpu.dtb.flush_tlb                            0                       # Number of times complete TLB was flushed
system.cpu.dtb.flush_tlb_asid                       0                       # Number of times TLB was flushed by ASID
system.cpu.dtb.flush_tlb_mva                        0                       # Number of times TLB was flushed by MVA
system.cpu.dtb.flush_tlb_mva_asid                   0                       # Number of times TLB was flushed by MVA & ASID
system.cpu.dtb.hits                                 0                       # DTB hits
system.cpu.dtb.inst_accesses                        0                       # ITB inst accesses
system.cpu.dtb.inst_hits                            0                       # ITB inst hits
system.cpu.dtb.inst_misses                          0                       # ITB inst misses
system.cpu.dtb.misses                               0                       # DTB misses
system.cpu.dtb.perms_faults                         0                       # Number of TLB faults due to permissions restrictions
system.cpu.dtb.prefetch_faults                      0                       # Number of TLB faults due to prefetch
system.cpu.dtb.read_accesses                        0                       # DTB read accesses
system.cpu.dtb.read_hits                            0                       # DTB read hits
system.cpu.dtb.read_misses                          0                       # DTB read misses
system.cpu.dtb.stage2_mmu.stage2_tlb.accesses            0                       # DTB accesses
system.cpu.dtb.stage2_mmu.stage2_tlb.align_faults            0                       # Number of TLB faults due to alignment restrictions
system.cpu.dtb.stage2_mmu.stage2_tlb.domain_faults            0                       # Number of TLB faults due to domain restrictions
system.cpu.dtb.stage2_mmu.stage2_tlb.flush_entries            0                       # Number of entries that have been flushed from TLB
system.cpu.dtb.stage2_mmu.stage2_tlb.flush_tlb            0                       # Number of times complete TLB was flushed
system.cpu.dtb.stage2_mmu.stage2_tlb.flush_tlb_asid            0                       # Number of times TLB was flushed by ASID
system.cpu.dtb.stage2_mmu.stage2_tlb.flush_tlb_mva            0                       # Number of times TLB was flushed by MVA
system.cpu.dtb.stage2_mmu.stage2_tlb.flush_tlb_mva_asid            0                       # Number of times TLB was flushed by MVA & ASID
system.cpu.dtb.stage2_mmu.stage2_tlb.hits            0                       # DTB hits
system.cpu.dtb.stage2_mmu.stage2_tlb.inst_accesses            0                       # ITB inst accesses
system.cpu.dtb.stage2_mmu.stage2_tlb.inst_hits            0                       # ITB inst hits
system.cpu.dtb.stage2_mmu.stage2_tlb.inst_misses            0                       # ITB inst misses
system.cpu.dtb.stage2_mmu.stage2_tlb.misses            0                       # DTB misses
system.cpu.dtb.stage2_mmu.stage2_tlb.perms_faults            0                       # Number of TLB faults due to permissions restrictions
system.cpu.dtb.stage2_mmu.stage2_tlb.prefetch_faults            0                       # Number of TLB faults due to prefetch
system.cpu.dtb.stage2_mmu.stage2_tlb.read_accesses            0                       # DTB read accesses
system.cpu.dtb.stage2_mmu.stage2_tlb.read_hits            0                       # DTB read hits
system.cpu.dtb.stage2_mmu.stage2_tlb.read_misses            0                       # DTB read misses
system.cpu.dtb.stage2_mmu.stage2_tlb.walker.walkRequestOrigin_Requested::Data            0                       # Table walker requests started/completed, data/inst
system.cpu.dtb.stage2_mmu.stage2_tlb.walker.walkRequestOrigin_Requested::Inst            0                       # Table walker requests started/completed, data/inst
system.cpu.dtb.stage2_mmu.stage2_tlb.walker.walkRequestOrigin_Requested::total            0                       # Table walker requests started/completed, data/inst
system.cpu.dtb.stage2_mmu.stage2_tlb.walker.walkRequestOrigin_Completed::Data            0                       # Table walker requests started/completed, data/inst
system.cpu.dtb.stage2_mmu.stage2_tlb.walker.walkRequestOrigin_Completed::Inst            0                       # Table walker requests started/completed, data/inst
system.cpu.dtb.stage2_mmu.stage2_tlb.walker.walkRequestOrigin_Completed::total            0                       # Table walker requests started/completed, data/inst
system.cpu.dtb.stage2_mmu.stage2_tlb.walker.walkRequestOrigin::total            0                       # Table walker requests started/completed, data/inst
system.cpu.dtb.stage2_mmu.stage2_tlb.walker.walks            0                       # Table walker walks requested
system.cpu.dtb.stage2_mmu.stage2_tlb.write_accesses            0                       # DTB write accesses
system.cpu.dtb.stage2_mmu.stage2_tlb.write_hits            0                       # DTB write hits
system.cpu.dtb.stage2_mmu.stage2_tlb.write_misses            0                       # DTB write misses
system.cpu.dtb.walker.walkRequestOrigin_Requested::Data            0                       # Table walker requests started/completed, data/inst
system.cpu.dtb.walker.walkRequestOrigin_Requested::Inst            0                       # Table walker requests started/completed, data/inst
system.cpu.dtb.walker.walkRequestOrigin_Requested::total            0                       # Table walker requests started/completed, data/inst
system.cpu.dtb.walker.walkRequestOrigin_Completed::Data            0                       # Table walker requests started/completed, data/inst
system.cpu.dtb.walker.walkRequestOrigin_Completed::Inst            0                       # Table walker requests started/completed, data/inst
system.cpu.dtb.walker.walkRequestOrigin_Completed::total            0                       # Table walker requests started/completed, data/inst
system.cpu.dtb.walker.walkRequestOrigin::total            0                       # Table walker requests started/completed, data/inst
system.cpu.dtb.walker.walks                         0                       # Table walker walks requested
system.cpu.dtb.write_accesses                       0                       # DTB write accesses
system.cpu.dtb.write_hits                           0                       # DTB write hits
system.cpu.dtb.write_misses                         0                       # DTB write misses
system.cpu.fetch2.amo_instructions                  0                       # Number of memory atomic instructions successfully decoded
system.cpu.fetch2.fp_instructions                   0                       # Number of floating point instructions successfully decoded
system.cpu.fetch2.int_instructions            9402811                       # Number of integer instructions successfully decoded
system.cpu.fetch2.load_instructions           1614138                       # Number of memory load instructions successfully decoded
system.cpu.fetch2.store_instructions          3292361                       # Number of memory store instructions successfully decoded
system.cpu.fetch2.vec_instructions                  0                       # Number of SIMD instructions successfully decoded
system.cpu.idleCycles                        12984355                       # Total number of cycles that the object has spent stopped
system.cpu.ipc                               0.352649                       # IPC: instructions per cycle
system.cpu.itb.accesses                             0                       # DTB accesses
system.cpu.itb.align_faults                         0                       # Number of TLB faults due to alignment restrictions
system.cpu.itb.domain_faults                        0                       # Number of TLB faults due to domain restrictions
system.cpu.itb.flush_entries                        0                       # Number of entries that have been flushed from TLB
system.cpu.itb.flush_tlb                            0                       # Number of times complete TLB was flushed
system.cpu.itb.flush_tlb_asid                       0                       # Number of times TLB was flushed by ASID
system.cpu.itb.flush_tlb_mva                        0                       # Number of times TLB was flushed by MVA
system.cpu.itb.flush_tlb_mva_asid                   0                       # Number of times TLB was flushed by MVA & ASID
system.cpu.itb.hits                                 0                       # DTB hits
system.cpu.itb.inst_accesses                        0                       # ITB inst accesses
system.cpu.itb.inst_hits                            0                       # ITB inst hits
system.cpu.itb.inst_misses                          0                       # ITB inst misses
system.cpu.itb.misses                               0                       # DTB misses
system.cpu.itb.perms_faults                         0                       # Number of TLB faults due to permissions restrictions
system.cpu.itb.prefetch_faults                      0                       # Number of TLB faults due to prefetch
system.cpu.itb.read_accesses                        0                       # DTB read accesses
system.cpu.itb.read_hits                            0                       # DTB read hits
system.cpu.itb.read_misses                          0                       # DTB read misses
system.cpu.itb.stage2_mmu.stage2_tlb.accesses            0                       # DTB accesses
system.cpu.itb.stage2_mmu.stage2_tlb.align_faults            0                       # Number of TLB faults due to alignment restrictions
system.cpu.itb.stage2_mmu.stage2_tlb.domain_faults            0                       # Number of TLB faults due to domain restrictions
system.cpu.itb.stage2_mmu.stage2_tlb.flush_entries            0                       # Number of entries that have been flushed from TLB
system.cpu.itb.stage2_mmu.stage2_tlb.flush_tlb            0                       # Number of times complete TLB was flushed
system.cpu.itb.stage2_mmu.stage2_tlb.flush_tlb_asid            0                       # Number of times TLB was flushed by ASID
system.cpu.itb.stage2_mmu.stage2_tlb.flush_tlb_mva            0                       # Number of times TLB was flushed by MVA
system.cpu.itb.stage2_mmu.stage2_tlb.flush_tlb_mva_asid            0                       # Number of times TLB was flushed by MVA & ASID
system.cpu.itb.stage2_mmu.stage2_tlb.hits            0                       # DTB hits
system.cpu.itb.stage2_mmu.stage2_tlb.inst_accesses            0                       # ITB inst accesses
system.cpu.itb.stage2_mmu.stage2_tlb.inst_hits            0                       # ITB inst hits
system.cpu.itb.stage2_mmu.stage2_tlb.inst_misses            0                       # ITB inst misses
system.cpu.itb.stage2_mmu.stage2_tlb.misses            0                       # DTB misses
system.cpu.itb.stage2_mmu.stage2_tlb.perms_faults            0                       # Number of TLB faults due to permissions restrictions
system.cpu.itb.stage2_mmu.stage2_tlb.prefetch_faults            0                       # Number of TLB faults due to prefetch
system.cpu.itb.stage2_mmu.stage2_tlb.read_accesses            0                       # DTB read accesses
system.cpu.itb.stage2_mmu.stage2_tlb.read_hits            0                       # DTB read hits
system.cpu.itb.stage2_mmu.stage2_tlb.read_misses            0                       # DTB read misses
system.cpu.itb.stage2_mmu.stage2_tlb.walker.walkRequestOrigin_Requested::Data            0                       # Table walker requests started/completed, data/inst
system.cpu.itb.stage2_mmu.stage2_tlb.walker.walkRequestOrigin_Requested::Inst            0                       # Table walker requests started/completed, data/inst
system.cpu.itb.stage2_mmu.stage2_tlb.walker.walkRequestOrigin_Requested::total            0                       # Table walker requests started/completed, data/inst
system.cpu.itb.stage2_mmu.stage2_tlb.walker.walkRequestOrigin_Completed::Data            0                       # Table walker requests started/completed, data/inst
system.cpu.itb.stage2_mmu.stage2_tlb.walker.walkRequestOrigin_Completed::Inst            0                       # Table walker requests started/completed, data/inst
system.cpu.itb.stage2_mmu.stage2_tlb.walker.walkRequestOrigin_Completed::total            0                       # Table walker requests started/completed, data/inst
system.cpu.itb.stage2_mmu.stage2_tlb.walker.walkRequestOrigin::total            0                       # Table walker requests started/completed, data/inst
system.cpu.itb.stage2_mmu.stage2_tlb.walker.walks            0                       # Table walker walks requested
system.cpu.itb.stage2_mmu.stage2_tlb.write_accesses            0                       # DTB write accesses
system.cpu.itb.stage2_mmu.stage2_tlb.write_hits            0                       # DTB write hits
system.cpu.itb.stage2_mmu.stage2_tlb.write_misses            0                       # DTB write misses
system.cpu.itb.walker.walkRequestOrigin_Requested::Data            0                       # Table walker requests started/completed, data/inst
system.cpu.itb.walker.walkRequestOrigin_Requested::Inst            0                       # Table walker requests started/completed, data/inst
system.cpu.itb.walker.walkRequestOrigin_Requested::total            0                       # Table walker requests started/completed, data/inst
system.cpu.itb.walker.walkRequestOrigin_Completed::Data            0                       # Table walker requests started/completed, data/inst
system.cpu.itb.walker.walkRequestOrigin_Completed::Inst            0                       # Table walker requests started/completed, data/inst
system.cpu.itb.walker.walkRequestOrigin_Completed::total            0                       # Table walker requests started/completed, data/inst
system.cpu.itb.walker.walkRequestOrigin::total            0                       # Table walker requests started/completed, data/inst
system.cpu.itb.walker.walks                         0                       # Table walker walks requested
system.cpu.itb.write_accesses                       0                       # DTB write accesses
system.cpu.itb.write_hits                           0                       # DTB write hits
system.cpu.itb.write_misses                         0                       # DTB write misses
system.cpu.kern.inst.arm                            0                       # number of arm instructions executed
system.cpu.kern.inst.quiesce                        0                       # number of quiesce instructions executed
system.cpu.numCycles                         52593615                       # number of cpu cycles simulated
system.cpu.numFetchSuspends                         0                       # Number of times Execute suspended instruction fetching
system.cpu.numWorkItemsCompleted                    0                       # number of work items this cpu completed
system.cpu.numWorkItemsStarted                      0                       # number of work items this cpu started
system.cpu.op_class_0::No_OpClass                   0      0.00%      0.00% # Class of committed instruction
system.cpu.op_class_0::IntAlu                13753352     73.57%     73.57% # Class of committed instruction
system.cpu.op_class_0::IntMult                   2246      0.01%     73.58% # Class of committed instruction
system.cpu.op_class_0::IntDiv                       0      0.00%     73.58% # Class of committed instruction
system.cpu.op_class_0::FloatAdd                     0      0.00%     73.58% # Class of committed instruction
system.cpu.op_class_0::FloatCmp                     0      0.00%     73.58% # Class of committed instruction
system.cpu.op_class_0::FloatCvt                     0      0.00%     73.58% # Class of committed instruction
system.cpu.op_class_0::FloatMult                    0      0.00%     73.58% # Class of committed instruction
system.cpu.op_class_0::FloatMultAcc                 0      0.00%     73.58% # Class of committed instruction
system.cpu.op_class_0::FloatDiv                     0      0.00%     73.58% # Class of committed instruction
system.cpu.op_class_0::FloatMisc                    0      0.00%     73.58% # Class of committed instruction
system.cpu.op_class_0::FloatSqrt                    0      0.00%     73.58% # Class of committed instruction
system.cpu.op_class_0::SimdAdd                      0      0.00%     73.58% # Class of committed instruction
system.cpu.op_class_0::SimdAddAcc                   0      0.00%     73.58% # Class of committed instruction
system.cpu.op_class_0::SimdAlu                      0      0.00%     73.58% # Class of committed instruction
system.cpu.op_class_0::SimdCmp                      0      0.00%     73.58% # Class of committed instruction
system.cpu.op_class_0::SimdCvt                      0      0.00%     73.58% # Class of committed instruction
system.cpu.op_class_0::SimdMisc                     0      0.00%     73.58% # Class of committed instruction
system.cpu.op_class_0::SimdMult                     0      0.00%     73.58% # Class of committed instruction
system.cpu.op_class_0::SimdMultAcc                  0      0.00%     73.58% # Class of committed instruction
system.cpu.op_class_0::SimdShift                    0      0.00%     73.58% # Class of committed instruction
system.cpu.op_class_0::SimdShiftAcc                 0      0.00%     73.58% # Class of committed instruction
system.cpu.op_class_0::SimdDiv                      0      0.00%     73.58% # Class of committed instruction
system.cpu.op_class_0::SimdSqrt                     0      0.00%     73.58% # Class of committed instruction
system.cpu.op_class_0::SimdFloatAdd                 0      0.00%     73.58% # Class of committed instruction
system.cpu.op_class_0::SimdFloatAlu                 0      0.00%     73.58% # Class of committed instruction
system.cpu.op_class_0::SimdFloatCmp                 0      0.00%     73.58% # Class of committed instruction
system.cpu.op_class_0::SimdFloatCvt                 0      0.00%     73.58% # Class of committed instruction
system.cpu.op_class_0::SimdFloatDiv                 0      0.00%     73.58% # Class of committed instruction
system.cpu.op_class_0::SimdFloatMisc                0      0.00%     73.58% # Class of committed instruction
system.cpu.op_class_0::SimdFloatMult                0      0.00%     73.58% # Class of committed instruction
system.cpu.op_class_0::SimdFloatMultAcc             0      0.00%     73.58% # Class of committed instruction
system.cpu.op_class_0::SimdFloatSqrt                0      0.00%     73.58% # Class of committed instruction
system.cpu.op_class_0::SimdReduceAdd                0      0.00%     73.58% # Class of committed instruction
system.cpu.op_class_0::SimdReduceAlu                0      0.00%     73.58% # Class of committed instruction
system.cpu.op_class_0::SimdReduceCmp                0      0.00%     73.58% # Class of committed instruction
system.cpu.op_class_0::SimdFloatReduceAdd            0      0.00%     73.58% # Class of committed instruction
system.cpu.op_class_0::SimdFloatReduceCmp            0      0.00%     73.58% # Class of committed instruction
system.cpu.op_class_0::SimdAes                      0      0.00%     73.58% # Class of committed instruction
system.cpu.op_class_0::SimdAesMix                   0      0.00%     73.58% # Class of committed instruction
system.cpu.op_class_0::SimdSha1Hash                 0      0.00%     73.58% # Class of committed instruction
system.cpu.op_class_0::SimdSha1Hash2                0      0.00%     73.58% # Class of committed instruction
system.cpu.op_class_0::SimdSha256Hash               0      0.00%     73.58% # Class of committed instruction
system.cpu.op_class_0::SimdSha256Hash2              0      0.00%     73.58% # Class of committed instruction
system.cpu.op_class_0::SimdShaSigma2                0      0.00%     73.58% # Class of committed instruction
system.cpu.op_class_0::SimdShaSigma3                0      0.00%     73.58% # Class of committed instruction
system.cpu.op_class_0::SimdPredAlu                  0      0.00%     73.58% # Class of committed instruction
system.cpu.op_class_0::MemRead                1600966      8.56%     82.15% # Class of committed instruction
system.cpu.op_class_0::MemWrite               3337258     17.85%    100.00% # Class of committed instruction
system.cpu.op_class_0::FloatMemRead                 0      0.00%    100.00% # Class of committed instruction
system.cpu.op_class_0::FloatMemWrite                0      0.00%    100.00% # Class of committed instruction
system.cpu.op_class_0::IprAccess                    0      0.00%    100.00% # Class of committed instruction
system.cpu.op_class_0::InstPrefetch                 0      0.00%    100.00% # Class of committed instruction
system.cpu.op_class_0::total                 18693822                       # Class of committed instruction
system.cpu.tickCycles                        39609260                       # Number of cycles that the object actually ticked
system.membus.snoop_filter.hit_multi_requests            9                       # Number of requests hitting in the snoop filter with multiple (>1) holders of the requested data.
system.membus.snoop_filter.hit_multi_snoops            0                       # Number of snoops hitting in the snoop filter with multiple (>1) holders of the requested data.
system.membus.snoop_filter.hit_single_requests         3893                       # Number of requests hitting in the snoop filter with a single holder of the requested data.
system.membus.snoop_filter.hit_single_snoops            0                       # Number of snoops hitting in the snoop filter with a single holder of the requested data.
system.membus.snoop_filter.tot_requests       3106543                       # Total number of requests made to the snoop filter.
system.membus.snoop_filter.tot_snoops               0                       # Total number of snoops made to the snoop filter.
system.bridge.pwrStateResidencyTicks::UNDEFINED  61909268125                       # Cumulative time (in ticks) in various power states
system.voltage_domain.voltage                       1                       # Voltage in Volts
system.iocache.pwrStateResidencyTicks::UNDEFINED  61909268125                       # Cumulative time (in ticks) in various power states
system.iocache.blocked_cycles::no_mshrs             0                       # number of cycles access was blocked
system.iocache.blocked_cycles::no_targets            0                       # number of cycles access was blocked
system.iocache.blocked::no_mshrs                    0                       # number of cycles access was blocked
system.iocache.blocked::no_targets                  0                       # number of cycles access was blocked
system.iocache.avg_blocked_cycles::no_mshrs          nan                       # average number of cycles each access was blocked
system.iocache.avg_blocked_cycles::no_targets          nan                       # average number of cycles each access was blocked
system.iocache.replacements                         0                       # number of replacements
system.iocache.tags.pwrStateResidencyTicks::UNDEFINED  61909268125                       # Cumulative time (in ticks) in various power states
system.iocache.tags.tagsinuse                       0                       # Cycle average of tags in use
system.iocache.tags.total_refs                      0                       # Total number of references to valid blocks.
system.iocache.tags.sampled_refs                    0                       # Sample count of references to valid blocks.
system.iocache.tags.avg_refs                      nan                       # Average number of references to valid blocks.
system.iocache.tags.warmup_cycle                    0                       # Cycle when the warmup percentage was hit.
system.iocache.tags.tag_accesses                    0                       # Number of tag accesses
system.iocache.tags.data_accesses                   0                       # Number of data accesses
system.membus.pwrStateResidencyTicks::UNDEFINED  61909268125                       # Cumulative time (in ticks) in various power states
system.membus.trans_dist::ReadReq             1976565                       # Transaction distribution
system.membus.trans_dist::ReadResp            1980471                       # Transaction distribution
system.membus.trans_dist::WriteReq            1163596                       # Transaction distribution
system.membus.trans_dist::WriteResp           1163596                       # Transaction distribution
system.membus.trans_dist::WritebackDirty         1280                       # Transaction distribution
system.membus.trans_dist::CleanEvict             2600                       # Transaction distribution
system.membus.trans_dist::ReadExReq                 6                       # Transaction distribution
system.membus.trans_dist::ReadExResp                6                       # Transaction distribution
system.membus.trans_dist::ReadCleanReq            195                       # Transaction distribution
system.membus.trans_dist::ReadSharedReq          3711                       # Transaction distribution
system.membus.trans_dist::CleanInvalidReq      3098740                       # Transaction distribution
system.membus.pkt_count_system.cpu.icache.mem_side::system.realview.bootmem.port          553                       # Packet count per connected master and slave (bytes)
system.membus.pkt_count_system.cpu.icache.mem_side::total          553                       # Packet count per connected master and slave (bytes)
system.membus.pkt_count_system.cpu.dcache.mem_side::system.realview.bootmem.port           46                       # Packet count per connected master and slave (bytes)
system.membus.pkt_count_system.cpu.dcache.mem_side::system.realview.gic.pio        16900                       # Packet count per connected master and slave (bytes)
system.membus.pkt_count_system.cpu.dcache.mem_side::system.mem_ctrls.port      3109845                       # Packet count per connected master and slave (bytes)
system.membus.pkt_count_system.cpu.dcache.mem_side::system.acctest.mem2cls.slave        65942                       # Packet count per connected master and slave (bytes)
system.membus.pkt_count_system.cpu.dcache.mem_side::total      3192733                       # Packet count per connected master and slave (bytes)
system.membus.pkt_count_system.acctest.coherency_bus.master[0]::system.mem_ctrls.port      6197480                       # Packet count per connected master and slave (bytes)
system.membus.pkt_count_system.acctest.coherency_bus.master[0]::total      6197480                       # Packet count per connected master and slave (bytes)
system.membus.pkt_count::total                9390766                       # Packet count per connected master and slave (bytes)
system.membus.pkt_size_system.cpu.icache.mem_side::system.realview.bootmem.port        12480                       # Cumulative packet size per connected master and slave (bytes)
system.membus.pkt_size_system.cpu.icache.mem_side::total        12480                       # Cumulative packet size per connected master and slave (bytes)
system.membus.pkt_size_system.cpu.dcache.mem_side::system.realview.bootmem.port         1152                       # Cumulative packet size per connected master and slave (bytes)
system.membus.pkt_size_system.cpu.dcache.mem_side::system.realview.gic.pio        33800                       # Cumulative packet size per connected master and slave (bytes)
system.membus.pkt_size_system.cpu.dcache.mem_side::system.mem_ctrls.port       318656                       # Cumulative packet size per connected master and slave (bytes)
system.membus.pkt_size_system.cpu.dcache.mem_side::system.acctest.mem2cls.slave        93118                       # Cumulative packet size per connected master and slave (bytes)
system.membus.pkt_size_system.cpu.dcache.mem_side::total       446726                       # Cumulative packet size per connected master and slave (bytes)
system.membus.pkt_size_system.acctest.coherency_bus.master[0]::system.mem_ctrls.port    198318000                       # Cumulative packet size per connected master and slave (bytes)
system.membus.pkt_size_system.acctest.coherency_bus.master[0]::total    198318000                       # Cumulative packet size per connected master and slave (bytes)
system.membus.pkt_size::total               198777206                       # Cumulative packet size per connected master and slave (bytes)
system.membus.snoops                                0                       # Total snoops (count)
system.membus.snoopTraffic                          0                       # Total snoop traffic (bytes)
system.membus.snoop_fanout::samples           6311629                       # Request fanout histogram
system.membus.snoop_fanout::mean             0.000003                       # Request fanout histogram
system.membus.snoop_fanout::stdev            0.001824                       # Request fanout histogram
system.membus.snoop_fanout::underflows              0      0.00%      0.00% # Request fanout histogram
system.membus.snoop_fanout::0                 6311608    100.00%    100.00% # Request fanout histogram
system.membus.snoop_fanout::1                      21      0.00%    100.00% # Request fanout histogram
system.membus.snoop_fanout::2                       0      0.00%    100.00% # Request fanout histogram
system.membus.snoop_fanout::3                       0      0.00%    100.00% # Request fanout histogram
system.membus.snoop_fanout::4                       0      0.00%    100.00% # Request fanout histogram
system.membus.snoop_fanout::overflows               0      0.00%    100.00% # Request fanout histogram
system.membus.snoop_fanout::min_value               0                       # Request fanout histogram
system.membus.snoop_fanout::max_value               1                       # Request fanout histogram
system.membus.snoop_fanout::total             6311629                       # Request fanout histogram
system.membus.reqLayer6.occupancy         11776299380                       # Layer occupancy (ticks)
system.membus.reqLayer6.utilization              35.8                       # Layer utilization (%)
system.membus.reqLayer7.occupancy            83170386                       # Layer occupancy (ticks)
system.membus.reqLayer7.utilization               0.3                       # Layer utilization (%)
system.membus.reqLayer1.occupancy              587592                       # Layer occupancy (ticks)
system.membus.reqLayer1.utilization               0.0                       # Layer utilization (%)
system.membus.reqLayer2.occupancy            16112240                       # Layer occupancy (ticks)
system.membus.reqLayer2.utilization               0.0                       # Layer utilization (%)
system.membus.badaddr_responder.pwrStateResidencyTicks::UNDEFINED  61909268125                       # Cumulative time (in ticks) in various power states
system.membus.respLayer4.occupancy           66149721                       # Layer occupancy (ticks)
system.membus.respLayer4.utilization              0.2                       # Layer utilization (%)
system.membus.respLayer7.occupancy        11645890936                       # Layer occupancy (ticks)
system.membus.respLayer7.utilization             35.4                       # Layer utilization (%)
system.membus.respLayer3.occupancy             979500                       # Layer occupancy (ticks)
system.membus.respLayer3.utilization              0.0                       # Layer utilization (%)
system.acctest.harris_non_max0_spm.pwrStateResidencyTicks::UNDEFINED  61909268125                       # Cumulative time (in ticks) in various power states
system.acctest.elem_matrix2_spm.pwrStateResidencyTicks::UNDEFINED  61909268125                       # Cumulative time (in ticks) in various power states
system.acctest.elem_matrix2_spm.bytes_read::.acctest.elem_matrix2.system.acctest.elem_matrix2     31522816                       # Number of bytes read from this memory
system.acctest.elem_matrix2_spm.bytes_read::.acctest.elem_matrix2_dma     17235968                       # Number of bytes read from this memory
system.acctest.elem_matrix2_spm.bytes_read::total     48758784                       # Number of bytes read from this memory
system.acctest.elem_matrix2_spm.bytes_written::.acctest.elem_matrix2.system.acctest.elem_matrix2     17825792                       # Number of bytes written to this memory
system.acctest.elem_matrix2_spm.bytes_written::.acctest.elem_matrix2_dma     30736384                       # Number of bytes written to this memory
system.acctest.elem_matrix2_spm.bytes_written::total     48562176                       # Number of bytes written to this memory
system.acctest.elem_matrix2_spm.num_reads::.acctest.elem_matrix2.system.acctest.elem_matrix2      7880704                       # Number of read requests responded to by this memory
system.acctest.elem_matrix2_spm.num_reads::.acctest.elem_matrix2_dma       538624                       # Number of read requests responded to by this memory
system.acctest.elem_matrix2_spm.num_reads::total      8419328                       # Number of read requests responded to by this memory
system.acctest.elem_matrix2_spm.num_writes::.acctest.elem_matrix2.system.acctest.elem_matrix2      4456448                       # Number of write requests responded to by this memory
system.acctest.elem_matrix2_spm.num_writes::.acctest.elem_matrix2_dma       960512                       # Number of write requests responded to by this memory
system.acctest.elem_matrix2_spm.num_writes::total      5416960                       # Number of write requests responded to by this memory
system.acctest.elem_matrix2_spm.bw_read::.acctest.elem_matrix2.system.acctest.elem_matrix2    958985337                       # Total read bandwidth from this memory (bytes/s)
system.acctest.elem_matrix2_spm.bw_read::.acctest.elem_matrix2_dma    524351650                       # Total read bandwidth from this memory (bytes/s)
system.acctest.elem_matrix2_spm.bw_read::total   1483336987                       # Total read bandwidth from this memory (bytes/s)
system.acctest.elem_matrix2_spm.bw_write::.acctest.elem_matrix2.system.acctest.elem_matrix2    542295242                       # Write bandwidth from this memory (bytes/s)
system.acctest.elem_matrix2_spm.bw_write::.acctest.elem_matrix2_dma    935060547                       # Write bandwidth from this memory (bytes/s)
system.acctest.elem_matrix2_spm.bw_write::total   1477355789                       # Write bandwidth from this memory (bytes/s)
system.acctest.elem_matrix2_spm.bw_total::.acctest.elem_matrix2.system.acctest.elem_matrix2   1501280579                       # Total bandwidth to/from this memory (bytes/s)
system.acctest.elem_matrix2_spm.bw_total::.acctest.elem_matrix2_dma   1459412197                       # Total bandwidth to/from this memory (bytes/s)
system.acctest.elem_matrix2_spm.bw_total::total   2960692776                       # Total bandwidth to/from this memory (bytes/s)
system.acctest.elem_matrix3_spm.pwrStateResidencyTicks::UNDEFINED  61909268125                       # Cumulative time (in ticks) in various power states
system.acctest.elem_matrix3_spm.bytes_read::.acctest.elem_matrix3.system.acctest.elem_matrix3     31457280                       # Number of bytes read from this memory
system.acctest.elem_matrix3_spm.bytes_read::.acctest.elem_matrix3_dma     17235968                       # Number of bytes read from this memory
system.acctest.elem_matrix3_spm.bytes_read::total     48693248                       # Number of bytes read from this memory
system.acctest.elem_matrix3_spm.bytes_written::.acctest.elem_matrix3.system.acctest.elem_matrix3     17825792                       # Number of bytes written to this memory
system.acctest.elem_matrix3_spm.bytes_written::.acctest.elem_matrix3_dma     30801920                       # Number of bytes written to this memory
system.acctest.elem_matrix3_spm.bytes_written::total     48627712                       # Number of bytes written to this memory
system.acctest.elem_matrix3_spm.num_reads::.acctest.elem_matrix3.system.acctest.elem_matrix3      7864320                       # Number of read requests responded to by this memory
system.acctest.elem_matrix3_spm.num_reads::.acctest.elem_matrix3_dma       538624                       # Number of read requests responded to by this memory
system.acctest.elem_matrix3_spm.num_reads::total      8402944                       # Number of read requests responded to by this memory
system.acctest.elem_matrix3_spm.num_writes::.acctest.elem_matrix3.system.acctest.elem_matrix3      4456448                       # Number of write requests responded to by this memory
system.acctest.elem_matrix3_spm.num_writes::.acctest.elem_matrix3_dma       962560                       # Number of write requests responded to by this memory
system.acctest.elem_matrix3_spm.num_writes::total      5419008                       # Number of write requests responded to by this memory
system.acctest.elem_matrix3_spm.bw_read::.acctest.elem_matrix3.system.acctest.elem_matrix3    956991604                       # Total read bandwidth from this memory (bytes/s)
system.acctest.elem_matrix3_spm.bw_read::.acctest.elem_matrix3_dma    524351650                       # Total read bandwidth from this memory (bytes/s)
system.acctest.elem_matrix3_spm.bw_read::total   1481343254                       # Total read bandwidth from this memory (bytes/s)
system.acctest.elem_matrix3_spm.bw_write::.acctest.elem_matrix3.system.acctest.elem_matrix3    542295242                       # Write bandwidth from this memory (bytes/s)
system.acctest.elem_matrix3_spm.bw_write::.acctest.elem_matrix3_dma    937054279                       # Write bandwidth from this memory (bytes/s)
system.acctest.elem_matrix3_spm.bw_write::total   1479349522                       # Write bandwidth from this memory (bytes/s)
system.acctest.elem_matrix3_spm.bw_total::.acctest.elem_matrix3.system.acctest.elem_matrix3   1499286847                       # Total bandwidth to/from this memory (bytes/s)
system.acctest.elem_matrix3_spm.bw_total::.acctest.elem_matrix3_dma   1461405929                       # Total bandwidth to/from this memory (bytes/s)
system.acctest.elem_matrix3_spm.bw_total::total   2960692776                       # Total bandwidth to/from this memory (bytes/s)
system.acctest.local_bus.pwrStateResidencyTicks::UNDEFINED  61909268125                       # Cumulative time (in ticks) in various power states
system.acctest.local_bus.trans_dist::ReadReq      2275328                       # Transaction distribution
system.acctest.local_bus.trans_dist::ReadResp      2275328                       # Transaction distribution
system.acctest.local_bus.trans_dist::WriteReq      4000175                       # Transaction distribution
system.acctest.local_bus.trans_dist::WriteResp      4000175                       # Transaction distribution
system.acctest.local_bus.pkt_count_system.acctest.mem2cls.master::system.acctest.convolution0.pio          400                       # Packet count per connected master and slave (bytes)
system.acctest.local_bus.pkt_count_system.acctest.mem2cls.master::system.acctest.convolution0_dma.pio          798                       # Packet count per connected master and slave (bytes)
system.acctest.local_bus.pkt_count_system.acctest.mem2cls.master::system.acctest.convolution1.pio          400                       # Packet count per connected master and slave (bytes)
system.acctest.local_bus.pkt_count_system.acctest.mem2cls.master::system.acctest.convolution1_dma.pio          798                       # Packet count per connected master and slave (bytes)
system.acctest.local_bus.pkt_count_system.acctest.mem2cls.master::system.acctest.elem_matrix0.pio         5580                       # Packet count per connected master and slave (bytes)
system.acctest.local_bus.pkt_count_system.acctest.mem2cls.master::system.acctest.elem_matrix0_dma.pio        10542                       # Packet count per connected master and slave (bytes)
system.acctest.local_bus.pkt_count_system.acctest.mem2cls.master::system.acctest.elem_matrix1.pio         5460                       # Packet count per connected master and slave (bytes)
system.acctest.local_bus.pkt_count_system.acctest.mem2cls.master::system.acctest.elem_matrix1_dma.pio        10318                       # Packet count per connected master and slave (bytes)
system.acctest.local_bus.pkt_count_system.acctest.mem2cls.master::system.acctest.elem_matrix2.pio         5440                       # Packet count per connected master and slave (bytes)
system.acctest.local_bus.pkt_count_system.acctest.mem2cls.master::system.acctest.elem_matrix2_dma.pio        10248                       # Packet count per connected master and slave (bytes)
system.acctest.local_bus.pkt_count_system.acctest.mem2cls.master::system.acctest.elem_matrix3.pio         5440                       # Packet count per connected master and slave (bytes)
system.acctest.local_bus.pkt_count_system.acctest.mem2cls.master::system.acctest.elem_matrix3_dma.pio        10262                       # Packet count per connected master and slave (bytes)
system.acctest.local_bus.pkt_count_system.acctest.mem2cls.master::system.acctest.grayscale0.pio           40                       # Packet count per connected master and slave (bytes)
system.acctest.local_bus.pkt_count_system.acctest.mem2cls.master::system.acctest.grayscale0_dma.pio          112                       # Packet count per connected master and slave (bytes)
system.acctest.local_bus.pkt_count_system.acctest.mem2cls.master::system.acctest.isp0.pio           48                       # Packet count per connected master and slave (bytes)
system.acctest.local_bus.pkt_count_system.acctest.mem2cls.master::system.acctest.isp0_dma.pio           56                       # Packet count per connected master and slave (bytes)
system.acctest.local_bus.pkt_count_system.acctest.mem2cls.master::total        65942                       # Packet count per connected master and slave (bytes)
system.acctest.local_bus.pkt_count_system.acctest.convolution0_dma.dma::system.acctest.convolution0_spm.port       151712                       # Packet count per connected master and slave (bytes)
system.acctest.local_bus.pkt_count_system.acctest.convolution0_dma.dma::system.acctest.grayscale0_spm.port         4096                       # Packet count per connected master and slave (bytes)
system.acctest.local_bus.pkt_count_system.acctest.convolution0_dma.dma::total       155808                       # Packet count per connected master and slave (bytes)
system.acctest.local_bus.pkt_count_system.acctest.convolution1_dma.dma::system.acctest.convolution1_spm.port       151712                       # Packet count per connected master and slave (bytes)
system.acctest.local_bus.pkt_count_system.acctest.convolution1_dma.dma::system.acctest.grayscale0_spm.port         4096                       # Packet count per connected master and slave (bytes)
system.acctest.local_bus.pkt_count_system.acctest.convolution1_dma.dma::total       155808                       # Packet count per connected master and slave (bytes)
system.acctest.local_bus.pkt_count_system.acctest.elem_matrix0_dma.dma::system.acctest.convolution0_spm.port        12288                       # Packet count per connected master and slave (bytes)
system.acctest.local_bus.pkt_count_system.acctest.elem_matrix0_dma.dma::system.acctest.convolution1_spm.port        12288                       # Packet count per connected master and slave (bytes)
system.acctest.local_bus.pkt_count_system.acctest.elem_matrix0_dma.dma::system.acctest.elem_matrix0_spm.port      3084288                       # Packet count per connected master and slave (bytes)
system.acctest.local_bus.pkt_count_system.acctest.elem_matrix0_dma.dma::total      3108864                       # Packet count per connected master and slave (bytes)
system.acctest.local_bus.pkt_count_system.acctest.elem_matrix1_dma.dma::system.acctest.elem_matrix1_spm.port      3018752                       # Packet count per connected master and slave (bytes)
system.acctest.local_bus.pkt_count_system.acctest.elem_matrix1_dma.dma::total      3018752                       # Packet count per connected master and slave (bytes)
system.acctest.local_bus.pkt_count_system.acctest.elem_matrix2_dma.dma::system.acctest.elem_matrix2_spm.port      2998272                       # Packet count per connected master and slave (bytes)
system.acctest.local_bus.pkt_count_system.acctest.elem_matrix2_dma.dma::total      2998272                       # Packet count per connected master and slave (bytes)
system.acctest.local_bus.pkt_count_system.acctest.elem_matrix3_dma.dma::system.acctest.elem_matrix3_spm.port      3002368                       # Packet count per connected master and slave (bytes)
system.acctest.local_bus.pkt_count_system.acctest.elem_matrix3_dma.dma::total      3002368                       # Packet count per connected master and slave (bytes)
system.acctest.local_bus.pkt_count_system.acctest.grayscale0_dma.dma::system.acctest.grayscale0_spm.port        28672                       # Packet count per connected master and slave (bytes)
system.acctest.local_bus.pkt_count_system.acctest.grayscale0_dma.dma::system.acctest.isp0_spm.port        12288                       # Packet count per connected master and slave (bytes)
system.acctest.local_bus.pkt_count_system.acctest.grayscale0_dma.dma::total        40960                       # Packet count per connected master and slave (bytes)
system.acctest.local_bus.pkt_count_system.acctest.isp0_dma.dma::system.acctest.isp0_spm.port         4232                       # Packet count per connected master and slave (bytes)
system.acctest.local_bus.pkt_count_system.acctest.isp0_dma.dma::total         4232                       # Packet count per connected master and slave (bytes)
system.acctest.local_bus.pkt_count::total     12551006                       # Packet count per connected master and slave (bytes)
system.acctest.local_bus.pkt_size_system.acctest.mem2cls.master::system.acctest.convolution0.pio          560                       # Cumulative packet size per connected master and slave (bytes)
system.acctest.local_bus.pkt_size_system.acctest.mem2cls.master::system.acctest.convolution0_dma.pio         1254                       # Cumulative packet size per connected master and slave (bytes)
system.acctest.local_bus.pkt_size_system.acctest.mem2cls.master::system.acctest.convolution1.pio          560                       # Cumulative packet size per connected master and slave (bytes)
system.acctest.local_bus.pkt_size_system.acctest.mem2cls.master::system.acctest.convolution1_dma.pio         1254                       # Cumulative packet size per connected master and slave (bytes)
system.acctest.local_bus.pkt_size_system.acctest.mem2cls.master::system.acctest.elem_matrix0.pio         6138                       # Cumulative packet size per connected master and slave (bytes)
system.acctest.local_bus.pkt_size_system.acctest.mem2cls.master::system.acctest.elem_matrix0_dma.pio        16566                       # Cumulative packet size per connected master and slave (bytes)
system.acctest.local_bus.pkt_size_system.acctest.mem2cls.master::system.acctest.elem_matrix1.pio         6006                       # Cumulative packet size per connected master and slave (bytes)
system.acctest.local_bus.pkt_size_system.acctest.mem2cls.master::system.acctest.elem_matrix1_dma.pio        16214                       # Cumulative packet size per connected master and slave (bytes)
system.acctest.local_bus.pkt_size_system.acctest.mem2cls.master::system.acctest.elem_matrix2.pio         5984                       # Cumulative packet size per connected master and slave (bytes)
system.acctest.local_bus.pkt_size_system.acctest.mem2cls.master::system.acctest.elem_matrix2_dma.pio        16104                       # Cumulative packet size per connected master and slave (bytes)
system.acctest.local_bus.pkt_size_system.acctest.mem2cls.master::system.acctest.elem_matrix3.pio         5984                       # Cumulative packet size per connected master and slave (bytes)
system.acctest.local_bus.pkt_size_system.acctest.mem2cls.master::system.acctest.elem_matrix3_dma.pio        16126                       # Cumulative packet size per connected master and slave (bytes)
system.acctest.local_bus.pkt_size_system.acctest.mem2cls.master::system.acctest.grayscale0.pio           44                       # Cumulative packet size per connected master and slave (bytes)
system.acctest.local_bus.pkt_size_system.acctest.mem2cls.master::system.acctest.grayscale0_dma.pio          176                       # Cumulative packet size per connected master and slave (bytes)
system.acctest.local_bus.pkt_size_system.acctest.mem2cls.master::system.acctest.isp0.pio           60                       # Cumulative packet size per connected master and slave (bytes)
system.acctest.local_bus.pkt_size_system.acctest.mem2cls.master::system.acctest.isp0_dma.pio           88                       # Cumulative packet size per connected master and slave (bytes)
system.acctest.local_bus.pkt_size_system.acctest.mem2cls.master::total        93118                       # Cumulative packet size per connected master and slave (bytes)
system.acctest.local_bus.pkt_size_system.acctest.convolution0_dma.dma::system.acctest.convolution0_spm.port      2426832                       # Cumulative packet size per connected master and slave (bytes)
system.acctest.local_bus.pkt_size_system.acctest.convolution0_dma.dma::system.acctest.grayscale0_spm.port        65536                       # Cumulative packet size per connected master and slave (bytes)
system.acctest.local_bus.pkt_size_system.acctest.convolution0_dma.dma::total      2492368                       # Cumulative packet size per connected master and slave (bytes)
system.acctest.local_bus.pkt_size_system.acctest.convolution1_dma.dma::system.acctest.convolution1_spm.port      2426832                       # Cumulative packet size per connected master and slave (bytes)
system.acctest.local_bus.pkt_size_system.acctest.convolution1_dma.dma::system.acctest.grayscale0_spm.port        65536                       # Cumulative packet size per connected master and slave (bytes)
system.acctest.local_bus.pkt_size_system.acctest.convolution1_dma.dma::total      2492368                       # Cumulative packet size per connected master and slave (bytes)
system.acctest.local_bus.pkt_size_system.acctest.elem_matrix0_dma.dma::system.acctest.convolution0_spm.port       196608                       # Cumulative packet size per connected master and slave (bytes)
system.acctest.local_bus.pkt_size_system.acctest.elem_matrix0_dma.dma::system.acctest.convolution1_spm.port       196608                       # Cumulative packet size per connected master and slave (bytes)
system.acctest.local_bus.pkt_size_system.acctest.elem_matrix0_dma.dma::system.acctest.elem_matrix0_spm.port     49348608                       # Cumulative packet size per connected master and slave (bytes)
system.acctest.local_bus.pkt_size_system.acctest.elem_matrix0_dma.dma::total     49741824                       # Cumulative packet size per connected master and slave (bytes)
system.acctest.local_bus.pkt_size_system.acctest.elem_matrix1_dma.dma::system.acctest.elem_matrix1_spm.port     48300032                       # Cumulative packet size per connected master and slave (bytes)
system.acctest.local_bus.pkt_size_system.acctest.elem_matrix1_dma.dma::total     48300032                       # Cumulative packet size per connected master and slave (bytes)
system.acctest.local_bus.pkt_size_system.acctest.elem_matrix2_dma.dma::system.acctest.elem_matrix2_spm.port     47972352                       # Cumulative packet size per connected master and slave (bytes)
system.acctest.local_bus.pkt_size_system.acctest.elem_matrix2_dma.dma::total     47972352                       # Cumulative packet size per connected master and slave (bytes)
system.acctest.local_bus.pkt_size_system.acctest.elem_matrix3_dma.dma::system.acctest.elem_matrix3_spm.port     48037888                       # Cumulative packet size per connected master and slave (bytes)
system.acctest.local_bus.pkt_size_system.acctest.elem_matrix3_dma.dma::total     48037888                       # Cumulative packet size per connected master and slave (bytes)
system.acctest.local_bus.pkt_size_system.acctest.grayscale0_dma.dma::system.acctest.grayscale0_spm.port       458752                       # Cumulative packet size per connected master and slave (bytes)
system.acctest.local_bus.pkt_size_system.acctest.grayscale0_dma.dma::system.acctest.isp0_spm.port       196608                       # Cumulative packet size per connected master and slave (bytes)
system.acctest.local_bus.pkt_size_system.acctest.grayscale0_dma.dma::total       655360                       # Cumulative packet size per connected master and slave (bytes)
system.acctest.local_bus.pkt_size_system.acctest.isp0_dma.dma::system.acctest.isp0_spm.port        67600                       # Cumulative packet size per connected master and slave (bytes)
system.acctest.local_bus.pkt_size_system.acctest.isp0_dma.dma::total        67600                       # Cumulative packet size per connected master and slave (bytes)
system.acctest.local_bus.pkt_size::total    199852910                       # Cumulative packet size per connected master and slave (bytes)
system.acctest.local_bus.occupancy        19957521708                       # Network occupancy (ticks)
system.acctest.local_bus.utilization             60.7                       # Network utilization (%)
system.acctest.local_bus.reqLayer0.occupancy  16547620269                       # Layer occupancy (ticks)
system.acctest.local_bus.reqLayer0.utilization         50.3                       # Layer utilization (%)
system.acctest.local_bus.respLayer0.occupancy  10829231000                       # Layer occupancy (ticks)
system.acctest.local_bus.respLayer0.utilization         32.9                       # Layer utilization (%)
system.acctest.isp0.pwrStateResidencyTicks::UNDEFINED  61909268125                       # Cumulative time (in ticks) in various power states
system.acctest.edge_tracking0.pwrStateResidencyTicks::UNDEFINED  61909268125                       # Cumulative time (in ticks) in various power states
system.acctest.grayscale0_spm.pwrStateResidencyTicks::UNDEFINED  61909268125                       # Cumulative time (in ticks) in various power states
system.acctest.grayscale0_spm.bytes_read::.acctest.convolution0_dma        65536                       # Number of bytes read from this memory
system.acctest.grayscale0_spm.bytes_read::.acctest.convolution1_dma        65536                       # Number of bytes read from this memory
system.acctest.grayscale0_spm.bytes_read::.acctest.grayscale0.system.acctest.grayscale0       196608                       # Number of bytes read from this memory
system.acctest.grayscale0_spm.bytes_read::.acctest.grayscale0_dma       262144                       # Number of bytes read from this memory
system.acctest.grayscale0_spm.bytes_read::total       589824                       # Number of bytes read from this memory
system.acctest.grayscale0_spm.bytes_written::.acctest.grayscale0.system.acctest.grayscale0       262144                       # Number of bytes written to this memory
system.acctest.grayscale0_spm.bytes_written::.acctest.grayscale0_dma       196608                       # Number of bytes written to this memory
system.acctest.grayscale0_spm.bytes_written::total       458752                       # Number of bytes written to this memory
system.acctest.grayscale0_spm.num_reads::.acctest.convolution0_dma         2048                       # Number of read requests responded to by this memory
system.acctest.grayscale0_spm.num_reads::.acctest.convolution1_dma         2048                       # Number of read requests responded to by this memory
system.acctest.grayscale0_spm.num_reads::.acctest.grayscale0.system.acctest.grayscale0       196608                       # Number of read requests responded to by this memory
system.acctest.grayscale0_spm.num_reads::.acctest.grayscale0_dma         8192                       # Number of read requests responded to by this memory
system.acctest.grayscale0_spm.num_reads::total       208896                       # Number of read requests responded to by this memory
system.acctest.grayscale0_spm.num_writes::.acctest.grayscale0.system.acctest.grayscale0        65536                       # Number of write requests responded to by this memory
system.acctest.grayscale0_spm.num_writes::.acctest.grayscale0_dma         6144                       # Number of write requests responded to by this memory
system.acctest.grayscale0_spm.num_writes::total        71680                       # Number of write requests responded to by this memory
system.acctest.grayscale0_spm.bw_read::.acctest.convolution0_dma      1993733                       # Total read bandwidth from this memory (bytes/s)
system.acctest.grayscale0_spm.bw_read::.acctest.convolution1_dma      1993733                       # Total read bandwidth from this memory (bytes/s)
system.acctest.grayscale0_spm.bw_read::.acctest.grayscale0.system.acctest.grayscale0      5981198                       # Total read bandwidth from this memory (bytes/s)
system.acctest.grayscale0_spm.bw_read::.acctest.grayscale0_dma      7974930                       # Total read bandwidth from this memory (bytes/s)
system.acctest.grayscale0_spm.bw_read::total     17943593                       # Total read bandwidth from this memory (bytes/s)
system.acctest.grayscale0_spm.bw_write::.acctest.grayscale0.system.acctest.grayscale0      7974930                       # Write bandwidth from this memory (bytes/s)
system.acctest.grayscale0_spm.bw_write::.acctest.grayscale0_dma      5981198                       # Write bandwidth from this memory (bytes/s)
system.acctest.grayscale0_spm.bw_write::total     13956128                       # Write bandwidth from this memory (bytes/s)
system.acctest.grayscale0_spm.bw_total::.acctest.convolution0_dma      1993733                       # Total bandwidth to/from this memory (bytes/s)
system.acctest.grayscale0_spm.bw_total::.acctest.convolution1_dma      1993733                       # Total bandwidth to/from this memory (bytes/s)
system.acctest.grayscale0_spm.bw_total::.acctest.grayscale0.system.acctest.grayscale0     13956128                       # Total bandwidth to/from this memory (bytes/s)
system.acctest.grayscale0_spm.bw_total::.acctest.grayscale0_dma     13956128                       # Total bandwidth to/from this memory (bytes/s)
system.acctest.grayscale0_spm.bw_total::total     31899720                       # Total bandwidth to/from this memory (bytes/s)
system.acctest.elem_matrix1_dma.pwrStateResidencyTicks::UNDEFINED  61909268125                       # Cumulative time (in ticks) in various power states
system.acctest.mem2cls.pwrStateResidencyTicks::UNDEFINED  61909268125                       # Cumulative time (in ticks) in various power states
system.acctest.isp0_dma.pwrStateResidencyTicks::UNDEFINED  61909268125                       # Cumulative time (in ticks) in various power states
system.acctest.grayscale0_dma.pwrStateResidencyTicks::UNDEFINED  61909268125                       # Cumulative time (in ticks) in various power states
system.acctest.convolution0.pwrStateResidencyTicks::UNDEFINED  61909268125                       # Cumulative time (in ticks) in various power states
system.acctest.convolution1.pwrStateResidencyTicks::UNDEFINED  61909268125                       # Cumulative time (in ticks) in various power states
system.acctest.isp0_spm.pwrStateResidencyTicks::UNDEFINED  61909268125                       # Cumulative time (in ticks) in various power states
system.acctest.isp0_spm.bytes_read::.acctest.grayscale0_dma       196608                       # Number of bytes read from this memory
system.acctest.isp0_spm.bytes_read::.acctest.isp0.system.acctest.isp0       458752                       # Number of bytes read from this memory
system.acctest.isp0_spm.bytes_read::total       655360                       # Number of bytes read from this memory
system.acctest.isp0_spm.bytes_written::.acctest.isp0.system.acctest.isp0       196608                       # Number of bytes written to this memory
system.acctest.isp0_spm.bytes_written::.acctest.isp0_dma        67600                       # Number of bytes written to this memory
system.acctest.isp0_spm.bytes_written::total       264208                       # Number of bytes written to this memory
system.acctest.isp0_spm.num_reads::.acctest.grayscale0_dma         6144                       # Number of read requests responded to by this memory
system.acctest.isp0_spm.num_reads::.acctest.isp0.system.acctest.isp0       458752                       # Number of read requests responded to by this memory
system.acctest.isp0_spm.num_reads::total       464896                       # Number of read requests responded to by this memory
system.acctest.isp0_spm.num_writes::.acctest.isp0.system.acctest.isp0       196608                       # Number of write requests responded to by this memory
system.acctest.isp0_spm.num_writes::.acctest.isp0_dma         2116                       # Number of write requests responded to by this memory
system.acctest.isp0_spm.num_writes::total       198724                       # Number of write requests responded to by this memory
system.acctest.isp0_spm.bw_read::.acctest.grayscale0_dma      5981198                       # Total read bandwidth from this memory (bytes/s)
system.acctest.isp0_spm.bw_read::.acctest.isp0.system.acctest.isp0     13956128                       # Total read bandwidth from this memory (bytes/s)
system.acctest.isp0_spm.bw_read::total       19937325                       # Total read bandwidth from this memory (bytes/s)
system.acctest.isp0_spm.bw_write::.acctest.isp0.system.acctest.isp0      5981198                       # Write bandwidth from this memory (bytes/s)
system.acctest.isp0_spm.bw_write::.acctest.isp0_dma      2056523                       # Write bandwidth from this memory (bytes/s)
system.acctest.isp0_spm.bw_write::total       8037721                       # Write bandwidth from this memory (bytes/s)
system.acctest.isp0_spm.bw_total::.acctest.grayscale0_dma      5981198                       # Total bandwidth to/from this memory (bytes/s)
system.acctest.isp0_spm.bw_total::.acctest.isp0.system.acctest.isp0     19937325                       # Total bandwidth to/from this memory (bytes/s)
system.acctest.isp0_spm.bw_total::.acctest.isp0_dma      2056523                       # Total bandwidth to/from this memory (bytes/s)
system.acctest.isp0_spm.bw_total::total      27975046                       # Total bandwidth to/from this memory (bytes/s)
system.acctest.coherency_bus.pwrStateResidencyTicks::UNDEFINED  61909268125                       # Cumulative time (in ticks) in various power states
system.acctest.coherency_bus.trans_dist::ReadReq      1972340                       # Transaction distribution
system.acctest.coherency_bus.trans_dist::ReadResp      1972340                       # Transaction distribution
system.acctest.coherency_bus.trans_dist::WriteReq      1126400                       # Transaction distribution
system.acctest.coherency_bus.trans_dist::WriteResp      1126400                       # Transaction distribution
system.acctest.coherency_bus.pkt_count_system.acctest.convolution0_dma.dma::system.membus.slave[7]        73808                       # Packet count per connected master and slave (bytes)
system.acctest.coherency_bus.pkt_count_system.acctest.convolution1_dma.dma::system.membus.slave[7]        73808                       # Packet count per connected master and slave (bytes)
system.acctest.coherency_bus.pkt_count_system.acctest.elem_matrix0_dma.dma::system.membus.slave[7]      1529856                       # Packet count per connected master and slave (bytes)
system.acctest.coherency_bus.pkt_count_system.acctest.elem_matrix1_dma.dma::system.membus.slave[7]      1509376                       # Packet count per connected master and slave (bytes)
system.acctest.coherency_bus.pkt_count_system.acctest.elem_matrix2_dma.dma::system.membus.slave[7]      1499136                       # Packet count per connected master and slave (bytes)
system.acctest.coherency_bus.pkt_count_system.acctest.elem_matrix3_dma.dma::system.membus.slave[7]      1501184                       # Packet count per connected master and slave (bytes)
system.acctest.coherency_bus.pkt_count_system.acctest.grayscale0_dma.dma::system.membus.slave[7]         8192                       # Packet count per connected master and slave (bytes)
system.acctest.coherency_bus.pkt_count_system.acctest.isp0_dma.dma::system.membus.slave[7]         2120                       # Packet count per connected master and slave (bytes)
system.acctest.coherency_bus.pkt_count::total      6197480                       # Packet count per connected master and slave (bytes)
system.acctest.coherency_bus.pkt_size_system.acctest.convolution0_dma.dma::system.membus.slave[7]      2361296                       # Cumulative packet size per connected master and slave (bytes)
system.acctest.coherency_bus.pkt_size_system.acctest.convolution1_dma.dma::system.membus.slave[7]      2361296                       # Cumulative packet size per connected master and slave (bytes)
system.acctest.coherency_bus.pkt_size_system.acctest.elem_matrix0_dma.dma::system.membus.slave[7]     48955392                       # Cumulative packet size per connected master and slave (bytes)
system.acctest.coherency_bus.pkt_size_system.acctest.elem_matrix1_dma.dma::system.membus.slave[7]     48300032                       # Cumulative packet size per connected master and slave (bytes)
system.acctest.coherency_bus.pkt_size_system.acctest.elem_matrix2_dma.dma::system.membus.slave[7]     47972352                       # Cumulative packet size per connected master and slave (bytes)
system.acctest.coherency_bus.pkt_size_system.acctest.elem_matrix3_dma.dma::system.membus.slave[7]     48037888                       # Cumulative packet size per connected master and slave (bytes)
system.acctest.coherency_bus.pkt_size_system.acctest.grayscale0_dma.dma::system.membus.slave[7]       262144                       # Cumulative packet size per connected master and slave (bytes)
system.acctest.coherency_bus.pkt_size_system.acctest.isp0_dma.dma::system.membus.slave[7]        67600                       # Cumulative packet size per connected master and slave (bytes)
system.acctest.coherency_bus.pkt_size::total    198318000                       # Cumulative packet size per connected master and slave (bytes)
system.acctest.coherency_bus.snoops                 0                       # Total snoops (count)
system.acctest.coherency_bus.snoopTraffic            0                       # Total snoop traffic (bytes)
system.acctest.coherency_bus.snoop_fanout::samples      4892728                       # Request fanout histogram
system.acctest.coherency_bus.snoop_fanout::mean            0                       # Request fanout histogram
system.acctest.coherency_bus.snoop_fanout::stdev            0                       # Request fanout histogram
system.acctest.coherency_bus.snoop_fanout::underflows            0      0.00%      0.00% # Request fanout histogram
system.acctest.coherency_bus.snoop_fanout::0      4892728    100.00%    100.00% # Request fanout histogram
system.acctest.coherency_bus.snoop_fanout::overflows            0      0.00%    100.00% # Request fanout histogram
system.acctest.coherency_bus.snoop_fanout::min_value            0                       # Request fanout histogram
system.acctest.coherency_bus.snoop_fanout::max_value            0                       # Request fanout histogram
system.acctest.coherency_bus.snoop_fanout::total      4892728                       # Request fanout histogram
system.acctest.coherency_bus.reqLayer0.occupancy   9789928095                       # Layer occupancy (ticks)
system.acctest.coherency_bus.reqLayer0.utilization         29.8                       # Layer utilization (%)
system.acctest.coherency_bus.respLayer0.occupancy  10988048000                       # Layer occupancy (ticks)
system.acctest.coherency_bus.respLayer0.utilization         33.4                       # Layer utilization (%)
system.acctest.convolution0_spm.pwrStateResidencyTicks::UNDEFINED  61909268125                       # Cumulative time (in ticks) in various power states
system.acctest.convolution0_spm.bytes_read::.acctest.convolution0.system.acctest.convolution0     64312960                       # Number of bytes read from this memory
system.acctest.convolution0_spm.bytes_read::.acctest.convolution0_dma      1114112                       # Number of bytes read from this memory
system.acctest.convolution0_spm.bytes_read::.acctest.elem_matrix0_dma       196608                       # Number of bytes read from this memory
system.acctest.convolution0_spm.bytes_read::total     65623680                       # Number of bytes read from this memory
system.acctest.convolution0_spm.bytes_written::.acctest.convolution0.system.acctest.convolution0      1310720                       # Number of bytes written to this memory
system.acctest.convolution0_spm.bytes_written::.acctest.convolution0_dma      1312720                       # Number of bytes written to this memory
system.acctest.convolution0_spm.bytes_written::total      2623440                       # Number of bytes written to this memory
system.acctest.convolution0_spm.num_reads::.acctest.convolution0.system.acctest.convolution0     16078240                       # Number of read requests responded to by this memory
system.acctest.convolution0_spm.num_reads::.acctest.convolution0_dma        34816                       # Number of read requests responded to by this memory
system.acctest.convolution0_spm.num_reads::.acctest.elem_matrix0_dma         6144                       # Number of read requests responded to by this memory
system.acctest.convolution0_spm.num_reads::total     16119200                       # Number of read requests responded to by this memory
system.acctest.convolution0_spm.num_writes::.acctest.convolution0.system.acctest.convolution0       327680                       # Number of write requests responded to by this memory
system.acctest.convolution0_spm.num_writes::.acctest.convolution0_dma        41040                       # Number of write requests responded to by this memory
system.acctest.convolution0_spm.num_writes::total       368720                       # Number of write requests responded to by this memory
system.acctest.convolution0_spm.bw_read::.acctest.convolution0.system.acctest.convolution0   1956525255                       # Total read bandwidth from this memory (bytes/s)
system.acctest.convolution0_spm.bw_read::.acctest.convolution0_dma     33893453                       # Total read bandwidth from this memory (bytes/s)
system.acctest.convolution0_spm.bw_read::.acctest.elem_matrix0_dma      5981198                       # Total read bandwidth from this memory (bytes/s)
system.acctest.convolution0_spm.bw_read::total   1996399905                       # Total read bandwidth from this memory (bytes/s)
system.acctest.convolution0_spm.bw_write::.acctest.convolution0.system.acctest.convolution0     39874650                       # Write bandwidth from this memory (bytes/s)
system.acctest.convolution0_spm.bw_write::.acctest.convolution0_dma     39935494                       # Write bandwidth from this memory (bytes/s)
system.acctest.convolution0_spm.bw_write::total     79810144                       # Write bandwidth from this memory (bytes/s)
system.acctest.convolution0_spm.bw_total::.acctest.convolution0.system.acctest.convolution0   1996399905                       # Total bandwidth to/from this memory (bytes/s)
system.acctest.convolution0_spm.bw_total::.acctest.convolution0_dma     73828947                       # Total bandwidth to/from this memory (bytes/s)
system.acctest.convolution0_spm.bw_total::.acctest.elem_matrix0_dma      5981198                       # Total bandwidth to/from this memory (bytes/s)
system.acctest.convolution0_spm.bw_total::total   2076210049                       # Total bandwidth to/from this memory (bytes/s)
system.acctest.elem_matrix0_dma.pwrStateResidencyTicks::UNDEFINED  61909268125                       # Cumulative time (in ticks) in various power states
system.acctest.grayscale0.pwrStateResidencyTicks::UNDEFINED  61909268125                       # Cumulative time (in ticks) in various power states
system.acctest.canny_non_max0.pwrStateResidencyTicks::UNDEFINED  61909268125                       # Cumulative time (in ticks) in various power states
system.acctest.elem_matrix0_spm.pwrStateResidencyTicks::UNDEFINED  61909268125                       # Cumulative time (in ticks) in various power states
system.acctest.elem_matrix0_spm.bytes_read::.acctest.elem_matrix0.system.acctest.elem_matrix0     32374784                       # Number of bytes read from this memory
system.acctest.elem_matrix0_spm.bytes_read::.acctest.elem_matrix0_dma     17694720                       # Number of bytes read from this memory
system.acctest.elem_matrix0_spm.bytes_read::total     50069504                       # Number of bytes read from this memory
[...]
system.cpu.icache.ReadReq_mshr_misses::total          195                       # number of ReadReq MSHR misses
system.cpu.icache.ReadReq_mshr_miss_latency::.cpu.inst      8169000                       # number of ReadReq MSHR miss cycles
system.cpu.icache.ReadReq_mshr_miss_latency::total      8169000                       # number of ReadReq MSHR miss cycles
system.cpu.icache.ReadReq_mshr_miss_rate::.cpu.inst     0.000016                       # mshr miss rate for ReadReq accesses
system.cpu.icache.ReadReq_mshr_miss_rate::total     0.000016                       # mshr miss rate for ReadReq accesses
system.cpu.icache.ReadReq_avg_mshr_miss_latency::.cpu.inst 41892.307692                       # average ReadReq mshr miss latency
system.cpu.icache.ReadReq_avg_mshr_miss_latency::total 41892.307692                       # average ReadReq mshr miss latency
system.cpu.icache.tags.pwrStateResidencyTicks::UNDEFINED  61909571250                       # Cumulative time (in ticks) in various power states
system.cpu.icache.tags.tagsinuse           505.876431                       # Cycle average of tags in use
system.cpu.icache.tags.total_refs            14589684                       # Total number of references to valid blocks.
system.cpu.icache.tags.sampled_refs               669                       # Sample count of references to valid blocks.
system.cpu.icache.tags.avg_refs          21808.197309                       # Average number of references to valid blocks.
system.cpu.icache.tags.warmup_cycle                 0                       # Cycle when the warmup percentage was hit.
system.cpu.icache.tags.occ_blocks::.cpu.inst   505.876431                       # Average occupied blocks per requestor
system.cpu.icache.tags.occ_percent::.cpu.inst     0.988040                       # Average percentage of cache occupancy
system.cpu.icache.tags.occ_percent::total     0.988040                       # Average percentage of cache occupancy
system.cpu.icache.tags.occ_task_id_blocks::1024          506                       # Occupied blocks per task id
system.cpu.icache.tags.age_task_id_blocks_1024::3           12                       # Occupied blocks per task id
system.cpu.icache.tags.age_task_id_blocks_1024::4          494                       # Occupied blocks per task id
system.cpu.icache.tags.occ_task_id_percent::1024     0.988281                       # Percentage of cache occupancy per task id
system.cpu.icache.tags.tag_accesses          23894137                       # Number of tag accesses
system.cpu.icache.tags.data_accesses         23894137                       # Number of data accesses
system.cpu.dtb.walker.pwrStateResidencyTicks::UNDEFINED  61909571250                       # Cumulative time (in ticks) in various power states
system.cpu.dtb.stage2_mmu.stage2_tlb.walker.pwrStateResidencyTicks::UNDEFINED  61909571250                       # Cumulative time (in ticks) in various power states
system.cpu.dcache.pwrStateResidencyTicks::UNDEFINED  61909571250                       # Cumulative time (in ticks) in various power states
system.cpu.dcache.demand_hits::.cpu.data      1784103                       # number of demand (read+write) hits
system.cpu.dcache.demand_hits::total          1784103                       # number of demand (read+write) hits
system.cpu.dcache.overall_hits::.cpu.data      1784103                       # number of overall hits
system.cpu.dcache.overall_hits::total         1784103                       # number of overall hits
system.cpu.dcache.demand_misses::.cpu.data         3728                       # number of demand (read+write) misses
system.cpu.dcache.demand_misses::total           3728                       # number of demand (read+write) misses
system.cpu.dcache.overall_misses::.cpu.data         3728                       # number of overall misses
system.cpu.dcache.overall_misses::total          3728                       # number of overall misses
system.cpu.dcache.demand_miss_latency::.cpu.data    609403250                       # number of demand (read+write) miss cycles
system.cpu.dcache.demand_miss_latency::total    609403250                       # number of demand (read+write) miss cycles
system.cpu.dcache.overall_miss_latency::.cpu.data    609403250                       # number of overall miss cycles
system.cpu.dcache.overall_miss_latency::total    609403250                       # number of overall miss cycles
system.cpu.dcache.demand_accesses::.cpu.data      1787831                       # number of demand (read+write) accesses
system.cpu.dcache.demand_accesses::total      1787831                       # number of demand (read+write) accesses
system.cpu.dcache.overall_accesses::.cpu.data      1787831                       # number of overall (read+write) accesses
system.cpu.dcache.overall_accesses::total      1787831                       # number of overall (read+write) accesses
system.cpu.dcache.demand_miss_rate::.cpu.data     0.002085                       # miss rate for demand accesses
system.cpu.dcache.demand_miss_rate::total     0.002085                       # miss rate for demand accesses
system.cpu.dcache.overall_miss_rate::.cpu.data     0.002085                       # miss rate for overall accesses
system.cpu.dcache.overall_miss_rate::total     0.002085                       # miss rate for overall accesses
system.cpu.dcache.demand_avg_miss_latency::.cpu.data 163466.537017                       # average overall miss latency
system.cpu.dcache.demand_avg_miss_latency::total 163466.537017                       # average overall miss latency
system.cpu.dcache.overall_avg_miss_latency::.cpu.data 163466.537017                       # average overall miss latency
system.cpu.dcache.overall_avg_miss_latency::total 163466.537017                       # average overall miss latency
system.cpu.dcache.blocked_cycles::no_mshrs            0                       # number of cycles access was blocked
system.cpu.dcache.blocked_cycles::no_targets            0                       # number of cycles access was blocked
system.cpu.dcache.blocked::no_mshrs                 0                       # number of cycles access was blocked
system.cpu.dcache.blocked::no_targets               0                       # number of cycles access was blocked
system.cpu.dcache.avg_blocked_cycles::no_mshrs          nan                       # average number of cycles each access was blocked
system.cpu.dcache.avg_blocked_cycles::no_targets          nan                       # average number of cycles each access was blocked
system.cpu.dcache.writebacks::.writebacks         1282                       # number of writebacks
system.cpu.dcache.writebacks::total              1282                       # number of writebacks
system.cpu.dcache.demand_mshr_hits::.cpu.data            8                       # number of demand (read+write) MSHR hits
system.cpu.dcache.demand_mshr_hits::total            8                       # number of demand (read+write) MSHR hits
system.cpu.dcache.overall_mshr_hits::.cpu.data            8                       # number of overall MSHR hits
system.cpu.dcache.overall_mshr_hits::total            8                       # number of overall MSHR hits
system.cpu.dcache.demand_mshr_misses::.cpu.data         3720                       # number of demand (read+write) MSHR misses
system.cpu.dcache.demand_mshr_misses::total         3720                       # number of demand (read+write) MSHR misses
system.cpu.dcache.overall_mshr_misses::.cpu.data         3720                       # number of overall MSHR misses
system.cpu.dcache.overall_mshr_misses::total         3720                       # number of overall MSHR misses
system.cpu.dcache.overall_mshr_uncacheable_misses::.cpu.data        41421                       # number of overall MSHR uncacheable misses
system.cpu.dcache.overall_mshr_uncacheable_misses::total        41421                       # number of overall MSHR uncacheable misses
system.cpu.dcache.demand_mshr_miss_latency::.cpu.data    603064250                       # number of demand (read+write) MSHR miss cycles
system.cpu.dcache.demand_mshr_miss_latency::total    603064250                       # number of demand (read+write) MSHR miss cycles
system.cpu.dcache.overall_mshr_miss_latency::.cpu.data    603064250                       # number of overall MSHR miss cycles
system.cpu.dcache.overall_mshr_miss_latency::total    603064250                       # number of overall MSHR miss cycles
system.cpu.dcache.overall_mshr_uncacheable_latency::.cpu.data     91504125                       # number of overall MSHR uncacheable cycles
system.cpu.dcache.overall_mshr_uncacheable_latency::total     91504125                       # number of overall MSHR uncacheable cycles
system.cpu.dcache.demand_mshr_miss_rate::.cpu.data     0.002081                       # mshr miss rate for demand accesses
system.cpu.dcache.demand_mshr_miss_rate::total     0.002081                       # mshr miss rate for demand accesses
system.cpu.dcache.overall_mshr_miss_rate::.cpu.data     0.002081                       # mshr miss rate for overall accesses
system.cpu.dcache.overall_mshr_miss_rate::total     0.002081                       # mshr miss rate for overall accesses
system.cpu.dcache.demand_avg_mshr_miss_latency::.cpu.data 162114.045699                       # average overall mshr miss latency
system.cpu.dcache.demand_avg_mshr_miss_latency::total 162114.045699                       # average overall mshr miss latency
system.cpu.dcache.overall_avg_mshr_miss_latency::.cpu.data 162114.045699                       # average overall mshr miss latency
system.cpu.dcache.overall_avg_mshr_miss_latency::total 162114.045699                       # average overall mshr miss latency
system.cpu.dcache.overall_avg_mshr_uncacheable_latency::.cpu.data  2209.123995                       # average overall mshr uncacheable latency
system.cpu.dcache.overall_avg_mshr_uncacheable_latency::total  2209.123995                       # average overall mshr uncacheable latency
system.cpu.dcache.replacements                   3721                       # number of replacements
system.cpu.dcache.ReadReq_hits::.cpu.data      1589623                       # number of ReadReq hits
system.cpu.dcache.ReadReq_hits::total         1589623                       # number of ReadReq hits
system.cpu.dcache.ReadReq_misses::.cpu.data         3718                       # number of ReadReq misses
system.cpu.dcache.ReadReq_misses::total          3718                       # number of ReadReq misses
system.cpu.dcache.ReadReq_miss_latency::.cpu.data    608221000                       # number of ReadReq miss cycles
system.cpu.dcache.ReadReq_miss_latency::total    608221000                       # number of ReadReq miss cycles
system.cpu.dcache.ReadReq_accesses::.cpu.data      1593341                       # number of ReadReq accesses(hits+misses)
system.cpu.dcache.ReadReq_accesses::total      1593341                       # number of ReadReq accesses(hits+misses)
system.cpu.dcache.ReadReq_miss_rate::.cpu.data     0.002333                       # miss rate for ReadReq accesses
system.cpu.dcache.ReadReq_miss_rate::total     0.002333                       # miss rate for ReadReq accesses
system.cpu.dcache.ReadReq_avg_miss_latency::.cpu.data 163588.219473                       # average ReadReq miss latency
system.cpu.dcache.ReadReq_avg_miss_latency::total 163588.219473                       # average ReadReq miss latency
system.cpu.dcache.ReadReq_mshr_hits::.cpu.data            4                       # number of ReadReq MSHR hits
system.cpu.dcache.ReadReq_mshr_hits::total            4                       # number of ReadReq MSHR hits
system.cpu.dcache.ReadReq_mshr_misses::.cpu.data         3714                       # number of ReadReq MSHR misses
system.cpu.dcache.ReadReq_mshr_misses::total         3714                       # number of ReadReq MSHR misses
system.cpu.dcache.ReadReq_mshr_uncacheable::.cpu.data         4225                       # number of ReadReq MSHR uncacheable
system.cpu.dcache.ReadReq_mshr_uncacheable::total         4225                       # number of ReadReq MSHR uncacheable
system.cpu.dcache.ReadReq_mshr_miss_latency::.cpu.data    602314750                       # number of ReadReq MSHR miss cycles
system.cpu.dcache.ReadReq_mshr_miss_latency::total    602314750                       # number of ReadReq MSHR miss cycles
system.cpu.dcache.ReadReq_mshr_uncacheable_latency::.cpu.data     91504125                       # number of ReadReq MSHR uncacheable cycles
system.cpu.dcache.ReadReq_mshr_uncacheable_latency::total     91504125                       # number of ReadReq MSHR uncacheable cycles
system.cpu.dcache.ReadReq_mshr_miss_rate::.cpu.data     0.002331                       # mshr miss rate for ReadReq accesses
system.cpu.dcache.ReadReq_mshr_miss_rate::total     0.002331                       # mshr miss rate for ReadReq accesses
system.cpu.dcache.ReadReq_avg_mshr_miss_latency::.cpu.data 162174.138395                       # average ReadReq mshr miss latency
system.cpu.dcache.ReadReq_avg_mshr_miss_latency::total 162174.138395                       # average ReadReq mshr miss latency
system.cpu.dcache.ReadReq_avg_mshr_uncacheable_latency::.cpu.data 21657.781065                       # average ReadReq mshr uncacheable latency
system.cpu.dcache.ReadReq_avg_mshr_uncacheable_latency::total 21657.781065                       # average ReadReq mshr uncacheable latency
system.cpu.dcache.WriteReq_hits::.cpu.data       194480                       # number of WriteReq hits
system.cpu.dcache.WriteReq_hits::total         194480                       # number of WriteReq hits
system.cpu.dcache.WriteReq_misses::.cpu.data           10                       # number of WriteReq misses
system.cpu.dcache.WriteReq_misses::total           10                       # number of WriteReq misses
system.cpu.dcache.WriteReq_miss_latency::.cpu.data      1182250                       # number of WriteReq miss cycles
system.cpu.dcache.WriteReq_miss_latency::total      1182250                       # number of WriteReq miss cycles
system.cpu.dcache.WriteReq_accesses::.cpu.data       194490                       # number of WriteReq accesses(hits+misses)
system.cpu.dcache.WriteReq_accesses::total       194490                       # number of WriteReq accesses(hits+misses)
system.cpu.dcache.WriteReq_miss_rate::.cpu.data     0.000051                       # miss rate for WriteReq accesses
system.cpu.dcache.WriteReq_miss_rate::total     0.000051                       # miss rate for WriteReq accesses
system.cpu.dcache.WriteReq_avg_miss_latency::.cpu.data       118225                       # average WriteReq miss latency
system.cpu.dcache.WriteReq_avg_miss_latency::total       118225                       # average WriteReq miss latency
system.cpu.dcache.WriteReq_mshr_hits::.cpu.data            4                       # number of WriteReq MSHR hits
system.cpu.dcache.WriteReq_mshr_hits::total            4                       # number of WriteReq MSHR hits
system.cpu.dcache.WriteReq_mshr_misses::.cpu.data            6                       # number of WriteReq MSHR misses
system.cpu.dcache.WriteReq_mshr_misses::total            6                       # number of WriteReq MSHR misses
system.cpu.dcache.WriteReq_mshr_uncacheable::.cpu.data        37196                       # number of WriteReq MSHR uncacheable
system.cpu.dcache.WriteReq_mshr_uncacheable::total        37196                       # number of WriteReq MSHR uncacheable
system.cpu.dcache.WriteReq_mshr_miss_latency::.cpu.data       749500                       # number of WriteReq MSHR miss cycles
system.cpu.dcache.WriteReq_mshr_miss_latency::total       749500                       # number of WriteReq MSHR miss cycles
system.cpu.dcache.WriteReq_mshr_miss_rate::.cpu.data     0.000031                       # mshr miss rate for WriteReq accesses
system.cpu.dcache.WriteReq_mshr_miss_rate::total     0.000031                       # mshr miss rate for WriteReq accesses
system.cpu.dcache.WriteReq_avg_mshr_miss_latency::.cpu.data 124916.666667                       # average WriteReq mshr miss latency
system.cpu.dcache.WriteReq_avg_mshr_miss_latency::total 124916.666667                       # average WriteReq mshr miss latency
system.cpu.dcache.CleanInvalidReq_mshr_misses::.cpu.data      3098740                       # number of CleanInvalidReq MSHR misses
system.cpu.dcache.CleanInvalidReq_mshr_misses::total      3098740                       # number of CleanInvalidReq MSHR misses
system.cpu.dcache.CleanInvalidReq_mshr_miss_latency::.cpu.data  34584476910                       # number of CleanInvalidReq MSHR miss cycles
system.cpu.dcache.CleanInvalidReq_mshr_miss_latency::total  34584476910                       # number of CleanInvalidReq MSHR miss cycles
system.cpu.dcache.CleanInvalidReq_mshr_miss_rate::.cpu.data          inf                       # mshr miss rate for CleanInvalidReq accesses
system.cpu.dcache.CleanInvalidReq_mshr_miss_rate::total          inf                       # mshr miss rate for CleanInvalidReq accesses
system.cpu.dcache.CleanInvalidReq_avg_mshr_miss_latency::.cpu.data 11160.819207                       # average CleanInvalidReq mshr miss latency
system.cpu.dcache.CleanInvalidReq_avg_mshr_miss_latency::total 11160.819207                       # average CleanInvalidReq mshr miss latency
system.cpu.dcache.tags.pwrStateResidencyTicks::UNDEFINED  61909571250                       # Cumulative time (in ticks) in various power states
system.cpu.dcache.tags.tagsinuse                  512                       # Cycle average of tags in use
system.cpu.dcache.tags.total_refs             1795702                       # Total number of references to valid blocks.
system.cpu.dcache.tags.sampled_refs              4233                       # Sample count of references to valid blocks.
system.cpu.dcache.tags.avg_refs            424.214978                       # Average number of references to valid blocks.
system.cpu.dcache.tags.warmup_cycle                 0                       # Cycle when the warmup percentage was hit.
system.cpu.dcache.tags.occ_blocks::.cpu.data          512                       # Average occupied blocks per requestor
system.cpu.dcache.tags.occ_percent::.cpu.data            1                       # Average percentage of cache occupancy
system.cpu.dcache.tags.occ_percent::total            1                       # Average percentage of cache occupancy
system.cpu.dcache.tags.occ_task_id_blocks::1024          512                       # Occupied blocks per task id
system.cpu.dcache.tags.age_task_id_blocks_1024::0            4                       # Occupied blocks per task id
system.cpu.dcache.tags.age_task_id_blocks_1024::1            1                       # Occupied blocks per task id
system.cpu.dcache.tags.age_task_id_blocks_1024::2            1                       # Occupied blocks per task id
system.cpu.dcache.tags.age_task_id_blocks_1024::3          476                       # Occupied blocks per task id
system.cpu.dcache.tags.age_task_id_blocks_1024::4           30                       # Occupied blocks per task id
system.cpu.dcache.tags.occ_task_id_percent::1024            1                       # Percentage of cache occupancy per task id
system.cpu.dcache.tags.tag_accesses          19550005                       # Number of tag accesses
system.cpu.dcache.tags.data_accesses         19550005                       # Number of data accesses
system.cpu.itb.walker.pwrStateResidencyTicks::UNDEFINED  61909571250                       # Cumulative time (in ticks) in various power states
system.cpu.itb.stage2_mmu.stage2_tlb.walker.pwrStateResidencyTicks::UNDEFINED  61909571250                       # Cumulative time (in ticks) in various power states

---------- End Simulation Statistics   ----------
