gem5 Simulator System.  http://gem5.org
gem5 is copyrighted software; use the --copyright option for details.

gem5 compiled Jun 12 2023 18:40:01
gem5 started Jul 14 2023 12:14:40
gem5 executing on node4x10a.cs.rochester.edu, pid 51759
command line: /u/sgupta45/gem5-SALAM/build/ARM/gem5_bus.opt --debug-flags=HWACC,CommInterface,LLVMInterface,StreamDma,NoncoherentDma,TickTimer,SchedulerStats --outdir=BM_ARM_OUT/comb_pred_3/canny_0_deblur_1_gru_1_harris_0_lstm_1_LAX_MEM_PRED_AVERAGE_15_dm_false configs/SALAM/scheduler.py --mem-size=4GB --mem-type=LPDDR5_6400_1x16_BG_BL32 --kernel=/u/sgupta45/gem5-SALAM/benchmarks/scheduler/sw/bin_comb_pred_3/canny_0_deblur_1_gru_1_harris_0_lstm_1_LAX_MEM_PRED_AVERAGE_15_dm_false.elf --vans-config-path=/u/sgupta45/VANS/config --disk-image=/u/sgupta45/gem5-SALAM/baremetal/common/fake.iso --machine-type=VExpress_GEM5_V1 --dtb-file=none --bare-metal --cpu-type=ex5_LITTLE --cpu-clock=1.6GHz --accpath=/u/sgupta45/gem5-SALAM/benchmarks --caches --cacheline_size=64 --l1d_size=32kB --l1d_assoc=4 --l1i_size=32kB --l1i_assoc=2

Global frequency set at 1000000000000 ticks per second
Cycle Counts Loaded!
Cycle Counts Loaded!
Cycle Counts Loaded!
Cycle Counts Loaded!
Cycle Counts Loaded!
Cycle Counts Loaded!
Cycle Counts Loaded!
Cycle Counts Loaded!
Cycle Counts Loaded!
Cycle Counts Loaded!
Cycle Counts Loaded!
**** REAL SIMULATION ****
7214520625: global: Timer #2 started at tick 7214520625
7215542500: global: Timer #2 stopped at tick 7215542500. Duration: 1021875
7222050625: global: Timer #2 started at tick 7222050625
7222485625: global: Timer #2 stopped at tick 7222485625. Duration: 435000
7254455000: global: Timer #2 started at tick 7254455000
7255184375: global: Timer #2 stopped at tick 7255184375. Duration: 729375
7305970875: system.acctest.elem_matrix0_dma: SRC:0x00000000821db280, DST:0x0000000024000020, LEN:65536
7311521000: system.acctest.isp0_dma: SRC:0x0000000082058e40, DST:0x0000000027000020, LEN:16900
7311948750: global: Number of accelerators running = 2
7315104000: system.acctest.isp0_dma: Transfer completed in 3.583 us
7315835000: global: Timer #0 started at tick 7315835000
7317264375: global: Timer #1 started at tick 7317264375
7318034375: global: Timer #1 stopped at tick 7318034375. Duration: 770000
7318643875: system.acctest.elem_matrix0_dma: Transfer completed in 12.673 us
7320011250: global: Timer #0 stopped at tick 7320011250. Duration: 4176250
7320073125: global: Number of accelerators running = 2
7320408750: global: Timer #0 started at tick 7320408750
7321065625: global: Timer #1 started at tick 7321065625
7321553125: global: Timer #1 stopped at tick 7321553125. Duration: 487500
7335867375: system.acctest.elem_matrix0_dma: SRC:0x00000000820db0c0, DST:0x0000000024010020, LEN:65536
7336197500: global: Timer #0 stopped at tick 7336197500. Duration: 15788750
7336213750: global: Number of accelerators running = 2
7347863375: system.acctest.elem_matrix0_dma: Transfer completed in 11.996 us
7348031250: global: Timer #0 started at tick 7348031250
7348554375: global: Timer #1 started at tick 7348554375
7349022500: global: Timer #1 stopped at tick 7349022500. Duration: 468125
7350628750: global: Timer #0 stopped at tick 7350628750. Duration: 2597500
7350645000: global: Number of accelerators running = 2
********************************************************************************
system.acctest.isp0.compute
   ========= Performance Analysis =============
   Setup Time:                      0.147422seconds
   Simulation Time:                 409.786seconds
   System Clock:                    1GHz
   Transistor Latency:              1ns
   Runtime:                         34882 cycles
   Runtime:                         34.882 us
   Stalls:                          1 cycles
   Executed Nodes:                  34880 cycles

********************************************************************************
   ========= Performance Analysis =================
   Setup Time:                      1.47422e+08ns
   Simulation Time:                 4.09786e+11ns
   System Clock:                    1GHz
   Transistor Latency:              0ns
   Runtime:                         34882 cycles
   Runtime:                         3.4882e-06 seconds
   Stalls:                          1 cycles
       Load Only:                   0 cycles
       Store Only:                  1 cycles
       Compute Only:                0 cycles
       Compute & Store:             0 cycles
       Load & Store:                0 cycles
       Load & Compute:              0 cycles
       Load & Compute & Store:      0 cycles
   Executed Nodes:                  34880 cycles
       Load Only:                   0 cycles
       Store Only:                  1 cycles
       Compute Only:                3453 cycles
       Compute & Store:             19014 cycles
       Load & Store:                0 cycles
       Load & Compute:              2467 cycles
       Load & Compute & Store:      9945 cycles

   ========= Runtime FU's ========= (Max | Avg) ===
   Counter FU's:                      10 | 0.118075
   Integer Add/Sub FU's:              76 | 0.082082
   Integer Mul/Div FU's:              11 | 0.043888
   Integer Shifter FU's:              42 | 0.055974
   Integer Bitwise FU's:               4 | 0.059443
   Floating Point Float Add/Sub:      53 | 0.116839
   Floating Point Double Add/Sub:      0 | 0.000000
   Floating Point Float Mul/Div:      76 | 0.625626
   Floating Point Double Mul/Div:      0 | 0.000000
   0 Cycle Compare FU's:              85 | 0.664984
   GEP Instruction FU's:              33 | 0.117424
   Type Conversion FU's:             110 | 0.379700

   ========= Static FU's ==========================
   Counter FU's:                    0
   Integer Add/Sub FU's:            0
   Integer Mul/Div FU's:            0
   Integer Shifter FU's:            0
   Integer Bitwise FU's:            0
   Floating Point Float Add/Sub:    0
   Floating Point Double Add/Sub:   0
   Floating Point Float Mul/Div:    0
   Floating Point Double Mul/Div:   0
   0 Cycle Compare FU's:            0
   GEP Instruction FU's:            0
   Type Conversion FU's:            0
   Other:                           0

   ========= Pipeline Register Usage =============
   Total Number of Registers:       1620
   Max Register Usage Per Cycle:    151
   Avg Register Usage Per Cycle:    58.744711
   Avg Register Size (Bytes):       5.073357

   ========= Memory Configuration =================
   Cache Bus Ports:                 0
   Shared Cache Size:               0kB
   Local Bus Ports:                 0
   Private SPM Size:                112kB
   Private Read Ports:              0
   Private Write Ports:             0
   Private Read Bus Width:          64
   Private Write Bus Width:         64
       Memory Reads:                0
       Memory Writes:               0
   ========= Power Analysis ======================
   FU Leakage Power:                1.637787 mW 
   FU Dynamic Power:                9.655087 mW 
   FU Total Power:                  11.292874 mW 

   Registers Leakage Power:          0.021654 mW 
   Registers Dynamic Power:          3.085961 mW 
       Register Reads (Bits):        2049133
       Register Writes (Bits):       2049168
   Registers Total Power:            3.107615 mW

   SPM Leakage Power:               0.061081 mW
   SPM Read Dynamic Power:          11.103730 mW
   SPM Write Dynamic Power:         7.385230 mW
   SPM Total Power:                 18.550041 mW

   Cache Leakage Power:             0.000000 mW
   Cache Read Dynamic Power:        0.000000 mW
   Cache Write Dynamic Power:       0.000000 mW
   Cache Total Power:               0.000000 mW

   Accelerator Power:               14.400490 mW
   Accelerator Power (SPM):         32.950531 mW
   Accelerator Power (Cache):       14.400490 mW

   ========= Area Analysis =======================
   FU Area:                         176023.796875 um^2 (0.176024 mm^2)
   Register Area:                   1760.064941 um^2 (0.001760 mm^2)
   SPM Area:                        2165.394891 um^2 (0.002165 mm^2)
   Cache Area:                      0.000000 um^2 (0.000000 mm^2)

   Accelerator Area:                177783.859375 um^2 (0.177784 mm^2)
   Accelerator Area (SPM):          179949.254266 um^2 (0.179949 mm^2)
   Accelerator Area (Cache):        177783.859375 um^2 (0.177784 mm^2)

   ========= SPM Resizing  =======================
   SPM Optimized Leakage Power:     0.005964 mW
   SPM Opt Area:                    422.108128 um^2

7354380625: global: Timer #0 started at tick 7354380625
7354880625: global: Timer #2 started at tick 7354880625
7355739375: global: Timer #2 stopped at tick 7355739375. Duration: 858750
7356508125: global: DAG ID = 0
7356527500: global: Node ID = 0
7356545625: global: Node deadline difference = -229
7356607500: global: Predicted memory time / byte = 7.27596e-05 us/byte
7356625625: global: Predicted memory time = 1.22964 us
7356643750: global: Predicted memory time / byte = 7.27596e-05 us/byte
7356661875: global: Predicted memory time = 3.57628 us
7356680000: global: Predicted memory time / byte = 0.000260414 us/byte
7356741250: global: Predicted memory time = 4.401 us
7356759375: global: Predicted memory time / byte = 0 us/byte
7356777500: global: Predicted memory time = 0 us
7356795625: global: Predicted memory access size = 0
7356813750: global: Predicted memory access size = 16900
7356876250: global: Predicted memory access size = 0
7356895000: global: Predicted memory access size = 0
7358078750: system.acctest.grayscale0_dma: SRC:0x0000000027004224, DST:0x0000000025000020, LEN:49152
7358533125: global: Timer #0 stopped at tick 7358533125. Duration: 4152500
7358549375: global: Number of accelerators running = 2
********************************************************************************
system.acctest.elem_matrix0.compute
   ========= Performance Analysis =============
   Setup Time:                      3.341991seconds
   Simulation Time:                 164.765954seconds
   System Clock:                    1.000000GHz
   Transistor Latency:              1ns
   Runtime:                         10932 cycles
   Runtime:                         10.932000 us
   Stalls:                          0 cycles
   Executed Nodes:                  10931 cycles

********************************************************************************
   ========= Performance Analysis =================
   Setup Time:                      3341990863.000000ns
   Simulation Time:                 164765953994.000000ns
   System Clock:                    1.000000GHz
   Transistor Latency:              0ns
   Runtime:                         10932 cycles
   Runtime:                         0.000001 seconds
   Stalls:                          0 cycles
       Load Only:                   0 cycles
       Store Only:                  0 cycles
       Compute Only:                0 cycles
       Compute & Store:             0 cycles
       Load & Store:                0 cycles
       Load & Compute:              0 cycles
       Load & Compute & Store:      0 cycles
   Executed Nodes:                  10931 cycles
       Load Only:                   0 cycles
       Store Only:                  5 cycles
       Compute Only:                1 cycles
       Compute & Store:             21 cycles
       Load & Store:                0 cycles
       Load & Compute:              7 cycles
       Load & Compute & Store:      10897 cycles

   ========= Runtime FU's ========= (Max | Avg) ===
   Counter FU's:                      32 | 0.046838
   Integer Add/Sub FU's:               0 | 0.000000
   Integer Mul/Div FU's:               0 | 0.000000
   Integer Shifter FU's:               0 | 0.000000
   Integer Bitwise FU's:               1 | 0.000091
   Floating Point Float Add/Sub:      34 | 0.044252
   Floating Point Double Add/Sub:      0 | 0.000000
   Floating Point Float Mul/Div:       0 | 0.000000
   Floating Point Double Mul/Div:      0 | 0.000000
   0 Cycle Compare FU's:             102 | 0.046974
   GEP Instruction FU's:              96 | 0.046835
   Type Conversion FU's:               7 | 0.006782

   ========= Static FU's ==========================
   Counter FU's:                    0
   Integer Add/Sub FU's:            0
   Integer Mul/Div FU's:            0
   Integer Shifter FU's:            0
   Integer Bitwise FU's:            0
   Floating Point Float Add/Sub:    0
   Floating Point Double Add/Sub:   0
   Floating Point Float Mul/Div:    0
   Floating Point Double Mul/Div:   0
   0 Cycle Compare FU's:            0
   GEP Instruction FU's:            0
   Type Conversion FU's:            0
   Other:                           0

   ========= Pipeline Register Usage =============
   Total Number of Registers:       5641
   Max Register Usage Per Cycle:    138
   Avg Register Usage Per Cycle:    12.130992
   Avg Register Size (Bytes):       5.980606

   ========= Memory Configuration =================
   Cache Bus Ports:                 0
   Shared Cache Size:               0kB
   Local Bus Ports:                 0
   Private SPM Size:                256kB
   Private Read Ports:              0
   Private Write Ports:             0
   Private Read Bus Width:          64
   Private Write Bus Width:         64
       Memory Reads:                0
       Memory Writes:               0
   ========= Power Analysis ======================
   FU Leakage Power:                0.519269 mW 
   FU Dynamic Power:                0.154621 mW 
   FU Total Power:                  0.673890 mW 

   Registers Leakage Power:          0.005281 mW 
   Registers Dynamic Power:          0.015326 mW 
       Register Reads (Bits):        132616
       Register Writes (Bits):       133658
   Registers Total Power:            0.020607 mW

   SPM Leakage Power:               0.104100 mW
   SPM Read Dynamic Power:          1.997266 mW
   SPM Write Dynamic Power:         0.953321 mW
   SPM Total Power:                 3.054688 mW

   Cache Leakage Power:             0.000000 mW
   Cache Read Dynamic Power:        0.000000 mW
   Cache Write Dynamic Power:       0.000000 mW
   Cache Total Power:               0.000000 mW

   Accelerator Power:               0.694497 mW
   Accelerator Power (SPM):         3.749184 mW
   Accelerator Power (Cache):       0.694497 mW

   ========= Area Analysis =======================
   FU Area:                         70212.562500 um^2 (0.070213 mm^2)
   Register Area:                   429.271088 um^2 (0.000429 mm^2)
   SPM Area:                        2177.365505 um^2 (0.002177 mm^2)
   Cache Area:                      0.000000 um^2 (0.000000 mm^2)

   Accelerator Area:                70641.835938 um^2 (0.070642 mm^2)
   Accelerator Area (SPM):          72819.201442 um^2 (0.072819 mm^2)
   Accelerator Area (Cache):        70641.835938 um^2 (0.070642 mm^2)

   ========= SPM Resizing  =======================
   SPM Optimized Leakage Power:     0.004248 mW
   SPM Opt Area:                    178.524902 um^2

7361375625: global: Timer #0 started at tick 7361375625
7361744375: global: Timer #2 started at tick 7361744375
7362293125: global: Timer #2 stopped at tick 7362293125. Duration: 548750
7362523750: global: Timer #2 started at tick 7362523750
7362934375: global: Timer #2 stopped at tick 7362934375. Duration: 410625
7365781750: system.acctest.grayscale0_dma: Transfer completed in 7.703 us
7376455875: system.acctest.elem_matrix0_dma: SRC:0x0000000024020020, DST:0x00000000820eb0c0, LEN:65536
7376901875: global: Timer #0 stopped at tick 7376901875. Duration: 15526250
7376918125: global: Number of accelerators running = 2
7377086250: global: Timer #0 started at tick 7377086250
7377586250: global: Timer #1 started at tick 7377586250
7377976875: global: Timer #1 stopped at tick 7377976875. Duration: 390625
7379496250: global: Timer #0 stopped at tick 7379496250. Duration: 2410000
7379597500: global: Number of accelerators running = 2
7382743875: system.acctest.elem_matrix0_dma: Transfer completed in 6.288 us
7382885000: global: Timer #0 started at tick 7382885000
7383477500: global: Timer #1 started at tick 7383477500
7383996250: global: Timer #1 stopped at tick 7383996250. Duration: 518750
7384452500: global: DAG ID = 1
7384516250: global: Node ID = 0
7384590000: global: Node deadline difference = -2227
7384608125: global: Predicted memory time / byte = 7.27596e-05 us/byte
7384626250: global: Predicted memory time = 9.53674 us
7384646250: global: Predicted memory time / byte = 7.27596e-05 us/byte
7384664375: global: Predicted memory time = 4.76837 us
7384682500: global: Predicted memory time / byte = 0.000203217 us/byte
7384700625: global: Predicted memory time = 26.636 us
7384718750: global: Predicted memory time / byte = 9.94415e-05 us/byte
7384736875: global: Predicted memory time = 6.517 us
7384756875: global: Predicted memory access size = 0
7384775000: global: Predicted memory access size = 131072
7384793125: global: Predicted memory access size = 0
7384811250: global: Predicted memory access size = 65536
********************************************************************************
system.acctest.grayscale0.compute
   ========= Performance Analysis =============
   Setup Time:                      0.006980seconds
   Simulation Time:                 109.054933seconds
   System Clock:                    1.000000GHz
   Transistor Latency:              1ns
   Runtime:                         10263 cycles
   Runtime:                         10.263000 us
   Stalls:                          1 cycles
   Executed Nodes:                  10261 cycles

********************************************************************************
   ========= Performance Analysis =================
   Setup Time:                      6980059.000000ns
   Simulation Time:                 109054933441.000000ns
   System Clock:                    1.000000GHz
   Transistor Latency:              0ns
   Runtime:                         10263 cycles
   Runtime:                         0.000001 seconds
   Stalls:                          1 cycles
       Load Only:                   0 cycles
       Store Only:                  1 cycles
       Compute Only:                0 cycles
       Compute & Store:             0 cycles
       Load & Store:                0 cycles
       Load & Compute:              0 cycles
       Load & Compute & Store:      0 cycles
   Executed Nodes:                  10261 cycles
       Load Only:                   0 cycles
       Store Only:                  1 cycles
       Compute Only:                88 cycles
       Compute & Store:             344 cycles
       Load & Store:                0 cycles
       Load & Compute:              1981 cycles
       Load & Compute & Store:      7847 cycles

   ========= Runtime FU's ========= (Max | Avg) ===
   Counter FU's:                      24 | 0.199556
   Integer Add/Sub FU's:               0 | 0.000000
   Integer Mul/Div FU's:               8 | 0.199552
   Integer Shifter FU's:               0 | 0.000000
   Integer Bitwise FU's:               1 | 0.000097
   Floating Point Float Add/Sub:      49 | 0.114264
   Floating Point Double Add/Sub:      0 | 0.000000
   Floating Point Float Mul/Div:      42 | 0.114129
   Floating Point Double Mul/Div:      0 | 0.000000
   0 Cycle Compare FU's:               9 | 0.066626
   GEP Instruction FU's:              36 | 0.177452
   Type Conversion FU's:              76 | 0.401969

   ========= Static FU's ==========================
   Counter FU's:                    0
   Integer Add/Sub FU's:            0
   Integer Mul/Div FU's:            0
   Integer Shifter FU's:            0
   Integer Bitwise FU's:            0
   Floating Point Float Add/Sub:    0
   Floating Point Double Add/Sub:   0
   Floating Point Float Mul/Div:    0
   Floating Point Double Mul/Div:   0
   0 Cycle Compare FU's:            0
   GEP Instruction FU's:            0
   Type Conversion FU's:            0
   Other:                           0

   ========= Pipeline Register Usage =============
   Total Number of Registers:       235
   Max Register Usage Per Cycle:    90
   Avg Register Usage Per Cycle:    33.924291
   Avg Register Size (Bytes):       5.841147

   ========= Memory Configuration =================
   Cache Bus Ports:                 0
   Shared Cache Size:               0kB
   Local Bus Ports:                 0
   Private SPM Size:                176kB
   Private Read Ports:              0
   Private Write Ports:             0
   Private Read Bus Width:          64
   Private Write Bus Width:         64
       Memory Reads:                0
       Memory Writes:               0
   ========= Power Analysis ======================
   FU Leakage Power:                1.178269 mW 
   FU Dynamic Power:                0.617392 mW 
   FU Total Power:                  1.795662 mW 

   Registers Leakage Power:          0.014185 mW 
   Registers Dynamic Power:          0.101057 mW 
       Register Reads (Bits):        348165
       Register Writes (Bits):       348168
   Registers Total Power:            0.115242 mW

   SPM Leakage Power:               0.089881 mW
   SPM Read Dynamic Power:          6.997296 mW
   SPM Write Dynamic Power:         2.062375 mW
   SPM Total Power:                 9.149552 mW

   Cache Leakage Power:             0.000000 mW
   Cache Read Dynamic Power:        0.000000 mW
   Cache Write Dynamic Power:       0.000000 mW
   Cache Total Power:               0.000000 mW

   Accelerator Power:               1.910904 mW
   Accelerator Power (SPM):         11.060456 mW
   Accelerator Power (Cache):       1.910904 mW

   ========= Area Analysis =======================
   FU Area:                         143348.187500 um^2 (0.143348 mm^2)
   Register Area:                   1152.968140 um^2 (0.001153 mm^2)
   SPM Area:                        3573.642862 um^2 (0.003574 mm^2)
   Cache Area:                      0.000000 um^2 (0.000000 mm^2)

   Accelerator Area:                144501.156250 um^2 (0.144501 mm^2)
   Accelerator Area (SPM):          148074.799112 um^2 (0.148075 mm^2)
   Accelerator Area (Cache):        144501.156250 um^2 (0.144501 mm^2)

   ========= SPM Resizing  =======================
   SPM Optimized Leakage Power:     0.003633 mW
   SPM Opt Area:                    364.024374 um^2

7398515875: system.acctest.elem_matrix0_dma: SRC:0x000000008209af40, DST:0x0000000024000020, LEN:65536
7398727500: global: Timer #0 stopped at tick 7398727500. Duration: 15842500
7398743750: global: Number of accelerators running = 2
7399021875: global: Timer #0 started at tick 7399021875
7399619375: global: Timer #2 started at tick 7399619375
7400271875: global: Timer #2 stopped at tick 7400271875. Duration: 652500
7410573875: system.acctest.elem_matrix0_dma: Transfer completed in 12.058 us
7414713750: system.acctest.grayscale0_dma: SRC:0x000000002500c020, DST:0x0000000082069200, LEN:65536
7416426000: system.acctest.convolution0_dma: SRC:0x000000002500c020, DST:0x0000000022000020, LEN:65536
7416865000: global: Timer #0 stopped at tick 7416865000. Duration: 17843125
7416881250: global: Number of accelerators running = 3
7417128750: global: Timer #0 started at tick 7417128750
7417619375: global: Timer #1 started at tick 7417619375
7418110000: global: Timer #1 stopped at tick 7418110000. Duration: 490625
7420141250: global: Timer #0 stopped at tick 7420141250. Duration: 3012500
7420157500: global: Number of accelerators running = 3
7425689750: system.acctest.grayscale0_dma: Transfer completed in 10.976 us
7425775625: global: Timer #0 started at tick 7425775625
7426095000: global: Timer #1 started at tick 7426095000
7426291250: global: Timer #1 stopped at tick 7426291250. Duration: 196250
7426879375: global: DAG ID = 0
7426893125: global: Node ID = 1
7426911250: global: Node deadline difference = -196
7426923750: global: Predicted memory time / byte = 0.000209749 us/byte
7426936250: global: Predicted memory time = 10.3096 us
7426948750: global: Predicted memory time / byte = 0.000209749 us/byte
7426961250: global: Predicted memory time = 13.7461 us
7426973750: global: Predicted memory time / byte = 0.000385763 us/byte
7426986250: global: Predicted memory time = 18.961 us
7426998750: global: Predicted memory time / byte = 0.00016745 us/byte
7427011250: global: Predicted memory time = 10.974 us
7427023750: global: Predicted memory access size = 0
7427036250: global: Predicted memory access size = 49152
7427048750: global: Predicted memory access size = 0
7427061250: global: Predicted memory access size = 65536
7427171875: global: Timer #0 stopped at tick 7427171875. Duration: 1396250
7427188125: global: Number of accelerators running = 2
7429918000: system.acctest.convolution0_dma: Transfer completed in 13.492 us
7430014375: global: Timer #0 started at tick 7430014375
7430507500: global: Timer #1 started at tick 7430507500
********************************************************************************
system.acctest.elem_matrix0.compute
   ========= Performance Analysis =============
   Setup Time:                      7.793498seconds
   Simulation Time:                 94.291020seconds
   System Clock:                    1.000000GHz
   Transistor Latency:              1ns
   Runtime:                         10932 cycles
   Runtime:                         10.932000 us
   Stalls:                          1 cycles
   Executed Nodes:                  10930 cycles

********************************************************************************
   ========= Performance Analysis =================
   Setup Time:                      7793498149.000000ns
   Simulation Time:                 94291020396.000000ns
   System Clock:                    1.000000GHz
   Transistor Latency:              0ns
   Runtime:                         10932 cycles
   Runtime:                         0.000001 seconds
   Stalls:                          1 cycles
       Load Only:                   0 cycles
       Store Only:                  1 cycles
       Compute Only:                0 cycles
       Compute & Store:             0 cycles
       Load & Store:                0 cycles
       Load & Compute:              0 cycles
       Load & Compute & Store:      0 cycles
   Executed Nodes:                  10930 cycles
       Load Only:                   0 cycles
       Store Only:                  4 cycles
       Compute Only:                1 cycles
       Compute & Store:             21 cycles
       Load & Store:                0 cycles
       Load & Compute:              6 cycles
       Load & Compute & Store:      10898 cycles

   ========= Runtime FU's ========= (Max | Avg) ===
   Counter FU's:                      32 | 0.046838
   Integer Add/Sub FU's:               0 | 0.000000
   Integer Mul/Div FU's:               0 | 0.000000
   Integer Shifter FU's:               0 | 0.000000
   Integer Bitwise FU's:               1 | 0.000091
   Floating Point Float Add/Sub:       0 | 0.000000
   Floating Point Double Add/Sub:      0 | 0.000000
   Floating Point Float Mul/Div:      34 | 0.044252
   Floating Point Double Mul/Div:      0 | 0.000000
   0 Cycle Compare FU's:             102 | 0.046945
   GEP Instruction FU's:              96 | 0.046835
   Type Conversion FU's:               7 | 0.006782

   ========= Static FU's ==========================
   Counter FU's:                    0
   Integer Add/Sub FU's:            0
   Integer Mul/Div FU's:            0
   Integer Shifter FU's:            0
   Integer Bitwise FU's:            0
   Floating Point Float Add/Sub:    0
   Floating Point Double Add/Sub:   0
   Floating Point Float Mul/Div:    0
   Floating Point Double Mul/Div:   0
   0 Cycle Compare FU's:            0
   GEP Instruction FU's:            0
   Type Conversion FU's:            0
   Other:                           0

   ========= Pipeline Register Usage =============
   Total Number of Registers:       5641
   Max Register Usage Per Cycle:    137
   Avg Register Usage Per Cycle:    12.130992
   Avg Register Size (Bytes):       5.980606

   ========= Memory Configuration =================
   Cache Bus Ports:                 0
   Shared Cache Size:               0kB
   Local Bus Ports:                 0
   Private SPM Size:                256kB
   Private Read Ports:              0
   Private Write Ports:             0
   Private Read Bus Width:          64
   Private Write Bus Width:         64
       Memory Reads:                0
       Memory Writes:               0
   ========= Power Analysis ======================
   FU Leakage Power:                0.045377 mW 
   FU Dynamic Power:                0.142576 mW 
   FU Total Power:                  0.187953 mW 

   Registers Leakage Power:          0.005281 mW 
   Registers Dynamic Power:          0.015326 mW 
       Register Reads (Bits):        132616
       Register Writes (Bits):       133658
   Registers Total Power:            0.020607 mW

   SPM Leakage Power:               0.104100 mW
   SPM Read Dynamic Power:          2.785289 mW
   SPM Write Dynamic Power:         2.044305 mW
   SPM Total Power:                 4.933694 mW

   Cache Leakage Power:             0.000000 mW
   Cache Read Dynamic Power:        0.000000 mW
   Cache Write Dynamic Power:       0.000000 mW
   Cache Total Power:               0.000000 mW

   Accelerator Power:               0.208559 mW
   Accelerator Power (SPM):         5.142254 mW
   Accelerator Power (Cache):       0.208559 mW

   ========= Area Analysis =======================
   FU Area:                         5472.068359 um^2 (0.005472 mm^2)
   Register Area:                   429.271088 um^2 (0.000429 mm^2)
   SPM Area:                        2177.365505 um^2 (0.002177 mm^2)
   Cache Area:                      0.000000 um^2 (0.000000 mm^2)

   Accelerator Area:                5901.339355 um^2 (0.005901 mm^2)
   Accelerator Area (SPM):          8078.704860 um^2 (0.008079 mm^2)
   Accelerator Area (Cache):        5901.339355 um^2 (0.005901 mm^2)

   ========= SPM Resizing  =======================
   SPM Optimized Leakage Power:     0.004248 mW
   SPM Opt Area:                    178.524902 um^2

7430821875: global: Timer #1 stopped at tick 7430821875. Duration: 314375
7432190875: system.acctest.convolution0_dma: SRC:0x0000000082018780, DST:0x0000000022030020, LEN:100
7432287875: system.acctest.convolution0_dma: Transfer completed in 0.097 us
7432469375: global: Timer #0 stopped at tick 7432469375. Duration: 2455000
7432485625: global: Number of accelerators running = 2
7432830625: global: Timer #0 started at tick 7432830625
7433136250: global: Timer #2 started at tick 7433136250
7433571250: global: Timer #2 stopped at tick 7433571250. Duration: 435000
7433837500: global: DAG ID = 1
7433851250: global: Node ID = 5
7433864375: global: Node deadline difference = -2235
7433876875: global: Predicted memory time / byte = 0.000209749 us/byte
7433889375: global: Predicted memory time = 27.4922 us
7433901875: global: Predicted memory time / byte = 0.000209749 us/byte
7433914375: global: Predicted memory time = 13.7461 us
7433926875: global: Predicted memory time / byte = 0.000284088 us/byte
7433939375: global: Predicted memory time = 18.618 us
7433951875: global: Predicted memory time / byte = 0 us/byte
7433964375: global: Predicted memory time = 0 us
7433976875: global: Predicted memory access size = 0
7433989375: global: Predicted memory access size = 65536
7434001875: global: Predicted memory access size = 0
7434014375: global: Predicted memory access size = 0
7447534500: system.acctest.elem_matrix0_dma: SRC:0x00000000820aaf40, DST:0x0000000024000020, LEN:65536
7447750625: global: Timer #0 stopped at tick 7447750625. Duration: 14920000
7447766875: global: Number of accelerators running = 2
7447983750: global: Timer #0 started at tick 7447983750
7449660625: global: Timer #0 stopped at tick 7449660625. Duration: 1676875
7449676875: global: Number of accelerators running = 2
7459538500: system.acctest.elem_matrix0_dma: Transfer completed in 12.004 us
7459625000: global: Timer #0 started at tick 7459625000
7459972500: global: Timer #1 started at tick 7459972500
7460466875: global: Timer #1 stopped at tick 7460466875. Duration: 494375
7462057500: global: Timer #0 stopped at tick 7462057500. Duration: 2432500
7462073750: global: Number of accelerators running = 2
********************************************************************************
system.acctest.elem_matrix0.compute
   ========= Performance Analysis =============
   Setup Time:                      5.881476seconds
   Simulation Time:                 92.216624seconds
   System Clock:                    1.000000GHz
   Transistor Latency:              1ns
   Runtime:                         10932 cycles
   Runtime:                         10.932000 us
   Stalls:                          0 cycles
   Executed Nodes:                  10931 cycles

********************************************************************************
   ========= Performance Analysis =================
   Setup Time:                      5881475504.000000ns
   Simulation Time:                 92216624272.000000ns
   System Clock:                    1.000000GHz
   Transistor Latency:              0ns
   Runtime:                         10932 cycles
   Runtime:                         0.000001 seconds
   Stalls:                          0 cycles
       Load Only:                   0 cycles
       Store Only:                  0 cycles
       Compute Only:                0 cycles
       Compute & Store:             0 cycles
       Load & Store:                0 cycles
       Load & Compute:              0 cycles
       Load & Compute & Store:      0 cycles
   Executed Nodes:                  10931 cycles
       Load Only:                   0 cycles
       Store Only:                  5 cycles
       Compute Only:                1 cycles
       Compute & Store:             21 cycles
       Load & Store:                0 cycles
       Load & Compute:              7 cycles
       Load & Compute & Store:      10897 cycles

   ========= Runtime FU's ========= (Max | Avg) ===
   Counter FU's:                      32 | 0.046838
   Integer Add/Sub FU's:               0 | 0.000000
   Integer Mul/Div FU's:               0 | 0.000000
   Integer Shifter FU's:               0 | 0.000000
   Integer Bitwise FU's:               1 | 0.000091
   Floating Point Float Add/Sub:      34 | 0.044252
   Floating Point Double Add/Sub:      0 | 0.000000
   Floating Point Float Mul/Div:       0 | 0.000000
   Floating Point Double Mul/Div:      0 | 0.000000
   0 Cycle Compare FU's:             102 | 0.046974
   GEP Instruction FU's:              96 | 0.046835
   Type Conversion FU's:               7 | 0.006782

   ========= Static FU's ==========================
   Counter FU's:                    0
   Integer Add/Sub FU's:            0
   Integer Mul/Div FU's:            0
   Integer Shifter FU's:            0
   Integer Bitwise FU's:            0
   Floating Point Float Add/Sub:    0
   Floating Point Double Add/Sub:   0
   Floating Point Float Mul/Div:    0
   Floating Point Double Mul/Div:   0
   0 Cycle Compare FU's:            0
   GEP Instruction FU's:            0
   Type Conversion FU's:            0
   Other:                           0

   ========= Pipeline Register Usage =============
   Total Number of Registers:       5641
   Max Register Usage Per Cycle:    138
   Avg Register Usage Per Cycle:    12.130992
   Avg Register Size (Bytes):       5.980606

   ========= Memory Configuration =================
   Cache Bus Ports:                 0
   Shared Cache Size:               0kB
   Local Bus Ports:                 0
   Private SPM Size:                256kB
   Private Read Ports:              0
   Private Write Ports:             0
   Private Read Bus Width:          64
   Private Write Bus Width:         64
       Memory Reads:                0
       Memory Writes:               0
   ========= Power Analysis ======================
   FU Leakage Power:                0.519269 mW 
   FU Dynamic Power:                0.154621 mW 
   FU Total Power:                  0.673890 mW 

   Registers Leakage Power:          0.005281 mW 
   Registers Dynamic Power:          0.015326 mW 
       Register Reads (Bits):        132616
       Register Writes (Bits):       133658
   Registers Total Power:            0.020607 mW

   SPM Leakage Power:               0.104100 mW
   SPM Read Dynamic Power:          3.776796 mW
   SPM Write Dynamic Power:         2.457440 mW
   SPM Total Power:                 6.338336 mW

   Cache Leakage Power:             0.000000 mW
   Cache Read Dynamic Power:        0.000000 mW
   Cache Write Dynamic Power:       0.000000 mW
   Cache Total Power:               0.000000 mW

   Accelerator Power:               0.694497 mW
   Accelerator Power (SPM):         7.032833 mW
   Accelerator Power (Cache):       0.694497 mW

   ========= Area Analysis =======================
   FU Area:                         70212.562500 um^2 (0.070213 mm^2)
   Register Area:                   429.271088 um^2 (0.000429 mm^2)
   SPM Area:                        2177.365505 um^2 (0.002177 mm^2)
   Cache Area:                      0.000000 um^2 (0.000000 mm^2)

   Accelerator Area:                70641.835938 um^2 (0.070642 mm^2)
   Accelerator Area (SPM):          72819.201442 um^2 (0.072819 mm^2)
   Accelerator Area (Cache):        70641.835938 um^2 (0.070642 mm^2)

   ========= SPM Resizing  =======================
   SPM Optimized Leakage Power:     0.004248 mW
   SPM Opt Area:                    178.524902 um^2

7472843125: global: Timer #0 started at tick 7472843125
7473212500: global: Timer #2 started at tick 7473212500
7473685625: global: Timer #2 stopped at tick 7473685625. Duration: 473125
7473936875: global: DAG ID = 1
7473950625: global: Node ID = 6
7473963750: global: Node deadline difference = -2252
7473976250: global: Predicted memory time / byte = 0.00021698 us/byte
7473988750: global: Predicted memory time = 28.44 us
7474001250: global: Predicted memory time / byte = 0.00021698 us/byte
7474013750: global: Predicted memory time = 14.22 us
7474026250: global: Predicted memory time / byte = 0.000183258 us/byte
7474038750: global: Predicted memory time = 12.01 us
7474051250: global: Predicted memory time / byte = 0 us/byte
7474063750: global: Predicted memory time = 0 us
7474076250: global: Predicted memory access size = 0
7474088750: global: Predicted memory access size = 65536
7474101250: global: Predicted memory access size = 0
7474113750: global: Predicted memory access size = 0
7475526875: global: Timer #0 stopped at tick 7475526875. Duration: 2683750
7475543125: global: Number of accelerators running = 2
********************************************************************************
system.acctest.elem_matrix0.compute
   ========= Performance Analysis =============
   Setup Time:                      6.283022seconds
   Simulation Time:                 69.150278seconds
   System Clock:                    1.000000GHz
   Transistor Latency:              1ns
   Runtime:                         8316 cycles
   Runtime:                         8.316000 us
   Stalls:                          82 cycles
   Executed Nodes:                  8233 cycles

********************************************************************************
   ========= Performance Analysis =================
   Setup Time:                      6283021716.000000ns
   Simulation Time:                 69150278245.000000ns
   System Clock:                    1.000000GHz
   Transistor Latency:              0ns
   Runtime:                         8316 cycles
   Runtime:                         0.000001 seconds
   Stalls:                          82 cycles
       Load Only:                   0 cycles
       Store Only:                  77 cycles
       Compute Only:                0 cycles
       Compute & Store:             5 cycles
       Load & Store:                0 cycles
       Load & Compute:              0 cycles
       Load & Compute & Store:      0 cycles
   Executed Nodes:                  8233 cycles
       Load Only:                   0 cycles
       Store Only:                  11 cycles
       Compute Only:                1827 cycles
       Compute & Store:             3453 cycles
       Load & Store:                0 cycles
       Load & Compute:              774 cycles
       Load & Compute & Store:      2168 cycles

   ========= Runtime FU's ========= (Max | Avg) ===
   Counter FU's:                      32 | 0.061572
   Integer Add/Sub FU's:               0 | 0.000000
   Integer Mul/Div FU's:               0 | 0.000000
   Integer Shifter FU's:               0 | 0.000000
   Integer Bitwise FU's:               1 | 0.000120
   Floating Point Float Add/Sub:      80 | 0.302014
   Floating Point Double Add/Sub:      0 | 0.000000
   Floating Point Float Mul/Div:      35 | 0.056511
   Floating Point Double Mul/Div:      0 | 0.000000
   0 Cycle Compare FU's:              15 | 0.024828
   GEP Instruction FU's:              64 | 0.061568
   Type Conversion FU's:              66 | 0.120964

   ========= Static FU's ==========================
   Counter FU's:                    0
   Integer Add/Sub FU's:            0
   Integer Mul/Div FU's:            0
   Integer Shifter FU's:            0
   Integer Bitwise FU's:            0
   Floating Point Float Add/Sub:    0
   Floating Point Double Add/Sub:   0
   Floating Point Float Mul/Div:    0
   Floating Point Double Mul/Div:   0
   0 Cycle Compare FU's:            0
   GEP Instruction FU's:            0
   Type Conversion FU's:            0
   Other:                           0

   ========= Pipeline Register Usage =============
   Total Number of Registers:       5641
   Max Register Usage Per Cycle:    126
   Avg Register Usage Per Cycle:    27.706590
   Avg Register Size (Bytes):       5.993295

   ========= Memory Configuration =================
   Cache Bus Ports:                 0
   Shared Cache Size:               0kB
   Local Bus Ports:                 0
   Private SPM Size:                256kB
   Private Read Ports:              0
   Private Write Ports:             0
   Private Read Bus Width:          64
   Private Write Bus Width:         64
       Memory Reads:                0
       Memory Writes:               0
   ========= Power Analysis ======================
   FU Leakage Power:                1.265749 mW 
   FU Dynamic Power:                1.166708 mW 
   FU Total Power:                  2.432457 mW 

   Registers Leakage Power:          0.011908 mW 
   Registers Dynamic Power:          0.045645 mW 
       Register Reads (Bits):        230408
       Register Writes (Bits):       231961
   Registers Total Power:            0.057553 mW

   SPM Leakage Power:               0.104100 mW
   SPM Read Dynamic Power:          4.599549 mW
   SPM Write Dynamic Power:         2.880682 mW
   SPM Total Power:                 7.584331 mW

   Cache Leakage Power:             0.000000 mW
   Cache Read Dynamic Power:        0.000000 mW
   Cache Write Dynamic Power:       0.000000 mW
   Cache Total Power:               0.000000 mW

   Accelerator Power:               2.490010 mW
   Accelerator Power (SPM):         10.074342 mW
   Accelerator Power (Cache):       2.490010 mW

   ========= Area Analysis =======================
   FU Area:                         170559.593750 um^2 (0.170560 mm^2)
   Register Area:                   967.909180 um^2 (0.000968 mm^2)
   SPM Area:                        2177.365505 um^2 (0.002177 mm^2)
   Cache Area:                      0.000000 um^2 (0.000000 mm^2)

   Accelerator Area:                171527.500000 um^2 (0.171527 mm^2)
   Accelerator Area (SPM):          173704.865505 um^2 (0.173705 mm^2)
   Accelerator Area (Cache):        171527.500000 um^2 (0.171527 mm^2)

   ========= SPM Resizing  =======================
   SPM Optimized Leakage Power:     0.003887 mW
   SPM Opt Area:                    172.850411 um^2

7483786250: global: Timer #0 started at tick 7483786250
7484076250: global: Timer #2 started at tick 7484076250
7484561875: global: Timer #2 stopped at tick 7484561875. Duration: 485625
7484810000: global: DAG ID = 1
7484823750: global: Node ID = 7
7484836875: global: Node deadline difference = -2280
7484849375: global: Predicted memory time / byte = 0.000212769 us/byte
7484861875: global: Predicted memory time = 13.944 us
7484874375: global: Predicted memory time / byte = 0.000212769 us/byte
7484886875: global: Predicted memory time = 13.944 us
7484899375: global: Predicted memory time / byte = 0 us/byte
7484911875: global: Predicted memory time = 0 us
7484924375: global: Predicted memory time / byte = 0 us/byte
7484936875: global: Predicted memory time = 0 us
7484949375: global: Predicted memory access size = 0
7484961875: global: Predicted memory access size = 0
7484974375: global: Predicted memory access size = 0
7484986875: global: Predicted memory access size = 0
7498518750: system.acctest.elem_matrix0_dma: SRC:0x00000000821db280, DST:0x0000000024010020, LEN:65536
7498724375: global: Timer #0 stopped at tick 7498724375. Duration: 14938125
7498740625: global: Number of accelerators running = 2
7510527750: system.acctest.elem_matrix0_dma: Transfer completed in 12.009 us
7510691250: global: Timer #0 started at tick 7510691250
7511118125: global: Timer #1 started at tick 7511118125
7511516875: global: Timer #1 stopped at tick 7511516875. Duration: 398750
7513003750: global: Timer #0 stopped at tick 7513003750. Duration: 2312500
7513020000: global: Number of accelerators running = 2
********************************************************************************
system.acctest.elem_matrix0.compute
   ========= Performance Analysis =============
   Setup Time:                      4.804874seconds
   Simulation Time:                 93.693837seconds
   System Clock:                    1.000000GHz
   Transistor Latency:              1ns
   Runtime:                         10932 cycles
   Runtime:                         10.932000 us
   Stalls:                          1 cycles
   Executed Nodes:                  10930 cycles

********************************************************************************
   ========= Performance Analysis =================
   Setup Time:                      4804873771.000000ns
   Simulation Time:                 93693836587.000000ns
   System Clock:                    1.000000GHz
   Transistor Latency:              0ns
   Runtime:                         10932 cycles
   Runtime:                         0.000001 seconds
   Stalls:                          1 cycles
       Load Only:                   0 cycles
       Store Only:                  1 cycles
       Compute Only:                0 cycles
       Compute & Store:             0 cycles
       Load & Store:                0 cycles
       Load & Compute:              0 cycles
       Load & Compute & Store:      0 cycles
   Executed Nodes:                  10930 cycles
       Load Only:                   0 cycles
       Store Only:                  4 cycles
       Compute Only:                1 cycles
       Compute & Store:             21 cycles
       Load & Store:                0 cycles
       Load & Compute:              6 cycles
       Load & Compute & Store:      10898 cycles

   ========= Runtime FU's ========= (Max | Avg) ===
   Counter FU's:                      32 | 0.046838
   Integer Add/Sub FU's:               0 | 0.000000
   Integer Mul/Div FU's:               0 | 0.000000
   Integer Shifter FU's:               0 | 0.000000
   Integer Bitwise FU's:               1 | 0.000091
   Floating Point Float Add/Sub:       0 | 0.000000
   Floating Point Double Add/Sub:      0 | 0.000000
   Floating Point Float Mul/Div:      34 | 0.044252
   Floating Point Double Mul/Div:      0 | 0.000000
   0 Cycle Compare FU's:             102 | 0.046945
   GEP Instruction FU's:              96 | 0.046835
   Type Conversion FU's:               7 | 0.006782

   ========= Static FU's ==========================
   Counter FU's:                    0
   Integer Add/Sub FU's:            0
   Integer Mul/Div FU's:            0
   Integer Shifter FU's:            0
   Integer Bitwise FU's:            0
   Floating Point Float Add/Sub:    0
   Floating Point Double Add/Sub:   0
   Floating Point Float Mul/Div:    0
   Floating Point Double Mul/Div:   0
   0 Cycle Compare FU's:            0
   GEP Instruction FU's:            0
   Type Conversion FU's:            0
   Other:                           0

   ========= Pipeline Register Usage =============
   Total Number of Registers:       5641
   Max Register Usage Per Cycle:    137
   Avg Register Usage Per Cycle:    12.130992
   Avg Register Size (Bytes):       5.980606

   ========= Memory Configuration =================
   Cache Bus Ports:                 0
   Shared Cache Size:               0kB
   Local Bus Ports:                 0
   Private SPM Size:                256kB
   Private Read Ports:              0
   Private Write Ports:             0
   Private Read Bus Width:          64
   Private Write Bus Width:         64
       Memory Reads:                0
       Memory Writes:               0
   ========= Power Analysis ======================
   FU Leakage Power:                0.045377 mW 
   FU Dynamic Power:                0.142576 mW 
   FU Total Power:                  0.187953 mW 

   Registers Leakage Power:          0.005281 mW 
   Registers Dynamic Power:          0.015326 mW 
       Register Reads (Bits):        132616
       Register Writes (Bits):       133658
   Registers Total Power:            0.020607 mW

   SPM Leakage Power:               0.104100 mW
   SPM Read Dynamic Power:          4.784107 mW
   SPM Write Dynamic Power:         3.448926 mW
   SPM Total Power:                 8.337133 mW

   Cache Leakage Power:             0.000000 mW
   Cache Read Dynamic Power:        0.000000 mW
   Cache Write Dynamic Power:       0.000000 mW
   Cache Total Power:               0.000000 mW

   Accelerator Power:               0.208559 mW
   Accelerator Power (SPM):         8.545693 mW
   Accelerator Power (Cache):       0.208559 mW

   ========= Area Analysis =======================
   FU Area:                         5472.068359 um^2 (0.005472 mm^2)
   Register Area:                   429.271088 um^2 (0.000429 mm^2)
   SPM Area:                        2177.365505 um^2 (0.002177 mm^2)
   Cache Area:                      0.000000 um^2 (0.000000 mm^2)

   Accelerator Area:                5901.339355 um^2 (0.005901 mm^2)
   Accelerator Area (SPM):          8078.704860 um^2 (0.008079 mm^2)
   Accelerator Area (Cache):        5901.339355 um^2 (0.005901 mm^2)

   ========= SPM Resizing  =======================
   SPM Optimized Leakage Power:     0.004248 mW
   SPM Opt Area:                    178.524902 um^2

7523767500: global: Timer #0 started at tick 7523767500
7524121875: global: Timer #2 started at tick 7524121875
7524398750: global: Timer #2 stopped at tick 7524398750. Duration: 276875
7524643750: global: DAG ID = 1
7524657500: global: Node ID = 8
7524670625: global: Node deadline difference = -2297
7524683125: global: Predicted memory time / byte = 0.000212769 us/byte
7524695625: global: Predicted memory time = 27.8881 us
7524708125: global: Predicted memory time / byte = 0.000212769 us/byte
7524720625: global: Predicted memory time = 13.944 us
7524733125: global: Predicted memory time / byte = 0.000184555 us/byte
7524745625: global: Predicted memory time = 12.095 us
7524758125: global: Predicted memory time / byte = 0 us/byte
7524770625: global: Predicted memory time = 0 us
7524783125: global: Predicted memory access size = 0
7524795625: global: Predicted memory access size = 65536
7524808125: global: Predicted memory access size = 0
7524820625: global: Predicted memory access size = 0
7538210875: system.acctest.elem_matrix0_dma: SRC:0x00000000820db0c0, DST:0x0000000024000020, LEN:65536
7538413125: global: Timer #0 stopped at tick 7538413125. Duration: 14645625
7538429375: global: Number of accelerators running = 2
7550140875: system.acctest.elem_matrix0_dma: Transfer completed in 11.93 us
7550304375: global: Timer #0 started at tick 7550304375
7550761250: global: Timer #1 started at tick 7550761250
7551150000: global: Timer #1 stopped at tick 7551150000. Duration: 388750
7552630000: global: Timer #0 stopped at tick 7552630000. Duration: 2325625
7552646250: global: Number of accelerators running = 2
********************************************************************************
system.acctest.elem_matrix0.compute
   ========= Performance Analysis =============
   Setup Time:                      5.504399seconds
   Simulation Time:                 91.451632seconds
   System Clock:                    1.000000GHz
   Transistor Latency:              1ns
   Runtime:                         10932 cycles
   Runtime:                         10.932000 us
   Stalls:                          0 cycles
   Executed Nodes:                  10931 cycles

********************************************************************************
   ========= Performance Analysis =================
   Setup Time:                      5504399286.000000ns
   Simulation Time:                 91451631664.000000ns
   System Clock:                    1.000000GHz
   Transistor Latency:              0ns
   Runtime:                         10932 cycles
   Runtime:                         0.000001 seconds
   Stalls:                          0 cycles
       Load Only:                   0 cycles
       Store Only:                  0 cycles
       Compute Only:                0 cycles
       Compute & Store:             0 cycles
       Load & Store:                0 cycles
       Load & Compute:              0 cycles
       Load & Compute & Store:      0 cycles
   Executed Nodes:                  10931 cycles
       Load Only:                   0 cycles
       Store Only:                  5 cycles
       Compute Only:                1 cycles
       Compute & Store:             21 cycles
       Load & Store:                0 cycles
       Load & Compute:              7 cycles
       Load & Compute & Store:      10897 cycles

   ========= Runtime FU's ========= (Max | Avg) ===
   Counter FU's:                      32 | 0.046838
   Integer Add/Sub FU's:               0 | 0.000000
   Integer Mul/Div FU's:               0 | 0.000000
   Integer Shifter FU's:               0 | 0.000000
   Integer Bitwise FU's:               1 | 0.000091
   Floating Point Float Add/Sub:      34 | 0.044252
   Floating Point Double Add/Sub:      0 | 0.000000
   Floating Point Float Mul/Div:       0 | 0.000000
   Floating Point Double Mul/Div:      0 | 0.000000
   0 Cycle Compare FU's:             102 | 0.046974
   GEP Instruction FU's:              96 | 0.046835
   Type Conversion FU's:               7 | 0.006782

   ========= Static FU's ==========================
   Counter FU's:                    0
   Integer Add/Sub FU's:            0
   Integer Mul/Div FU's:            0
   Integer Shifter FU's:            0
   Integer Bitwise FU's:            0
   Floating Point Float Add/Sub:    0
   Floating Point Double Add/Sub:   0
   Floating Point Float Mul/Div:    0
   Floating Point Double Mul/Div:   0
   0 Cycle Compare FU's:            0
   GEP Instruction FU's:            0
   Type Conversion FU's:            0
   Other:                           0

   ========= Pipeline Register Usage =============
   Total Number of Registers:       5641
   Max Register Usage Per Cycle:    138
   Avg Register Usage Per Cycle:    12.130992
   Avg Register Size (Bytes):       5.980606

   ========= Memory Configuration =================
   Cache Bus Ports:                 0
   Shared Cache Size:               0kB
   Local Bus Ports:                 0
   Private SPM Size:                256kB
   Private Read Ports:              0
   Private Write Ports:             0
   Private Read Bus Width:          64
   Private Write Bus Width:         64
       Memory Reads:                0
       Memory Writes:               0
   ========= Power Analysis ======================
   FU Leakage Power:                0.519269 mW 
   FU Dynamic Power:                0.154621 mW 
   FU Total Power:                  0.673890 mW 

   Registers Leakage Power:          0.005281 mW 
   Registers Dynamic Power:          0.015326 mW 
       Register Reads (Bits):        132616
       Register Writes (Bits):       133658
   Registers Total Power:            0.020607 mW

   SPM Leakage Power:               0.104100 mW
   SPM Read Dynamic Power:          5.190014 mW
   SPM Write Dynamic Power:         3.846212 mW
   SPM Total Power:                 9.140327 mW

   Cache Leakage Power:             0.000000 mW
   Cache Read Dynamic Power:        0.000000 mW
   Cache Write Dynamic Power:       0.000000 mW
   Cache Total Power:               0.000000 mW

   Accelerator Power:               0.694497 mW
   Accelerator Power (SPM):         9.834824 mW
   Accelerator Power (Cache):       0.694497 mW

   ========= Area Analysis =======================
   FU Area:                         70212.562500 um^2 (0.070213 mm^2)
   Register Area:                   429.271088 um^2 (0.000429 mm^2)
   SPM Area:                        2177.365505 um^2 (0.002177 mm^2)
   Cache Area:                      0.000000 um^2 (0.000000 mm^2)

   Accelerator Area:                70641.835938 um^2 (0.070642 mm^2)
   Accelerator Area (SPM):          72819.201442 um^2 (0.072819 mm^2)
   Accelerator Area (Cache):        70641.835938 um^2 (0.070642 mm^2)

   ========= SPM Resizing  =======================
   SPM Optimized Leakage Power:     0.004248 mW
   SPM Opt Area:                    178.524902 um^2

7563399375: global: Timer #0 started at tick 7563399375
7563693125: global: Timer #2 started at tick 7563693125
7564031250: global: Timer #2 stopped at tick 7564031250. Duration: 338125
7577232375: system.acctest.elem_matrix0_dma: SRC:0x0000000024010020, DST:0x000000008217b0c0, LEN:65536
7577597500: global: Timer #0 stopped at tick 7577597500. Duration: 14198125
7577613750: global: Number of accelerators running = 2
7583643375: system.acctest.elem_matrix0_dma: Transfer completed in 6.411 us
7583719375: global: Timer #0 started at tick 7583719375
7584051875: global: Timer #1 started at tick 7584051875
7584246875: global: Timer #1 stopped at tick 7584246875. Duration: 195000
7584459375: global: DAG ID = 1
7584473125: global: Node ID = 9
7584491250: global: Node deadline difference = -2294
7584503750: global: Predicted memory time / byte = 0.000209637 us/byte
7584516250: global: Predicted memory time = 27.4775 us
7584528750: global: Predicted memory time / byte = 0.000209637 us/byte
7584541250: global: Predicted memory time = 13.7388 us
7584553750: global: Predicted memory time / byte = 0.000183914 us/byte
7584566250: global: Predicted memory time = 12.053 us
7584578750: global: Predicted memory time / byte = 9.76868e-05 us/byte
7584591250: global: Predicted memory time = 6.402 us
7584603750: global: Predicted memory access size = 0
7584616250: global: Predicted memory access size = 65536
7584628750: global: Predicted memory access size = 0
7584641250: global: Predicted memory access size = 65536
7598109500: system.acctest.elem_matrix0_dma: SRC:0x00000000821db280, DST:0x0000000024000020, LEN:65536
7598313750: global: Timer #0 stopped at tick 7598313750. Duration: 14594375
7598330000: global: Number of accelerators running = 2
7610054500: system.acctest.elem_matrix0_dma: Transfer completed in 11.945 us
7610263125: global: Timer #0 started at tick 7610263125
7610728125: global: Timer #1 started at tick 7610728125
7611165000: global: Timer #1 stopped at tick 7611165000. Duration: 436875
7624611625: system.acctest.elem_matrix0_dma: SRC:0x000000008207af40, DST:0x0000000024010020, LEN:65536
7624839375: global: Timer #0 stopped at tick 7624839375. Duration: 14576250
7624855625: global: Number of accelerators running = 2
7636584625: system.acctest.elem_matrix0_dma: Transfer completed in 11.973 us
7636660000: global: Timer #0 started at tick 7636660000
7637156250: global: Timer #1 started at tick 7637156250
7637460000: global: Timer #1 stopped at tick 7637460000. Duration: 303750
7639003750: global: Timer #0 stopped at tick 7639003750. Duration: 2343750
7639020000: global: Number of accelerators running = 2
********************************************************************************
system.acctest.elem_matrix0.compute
   ========= Performance Analysis =============
   Setup Time:                      5.238523seconds
   Simulation Time:                 100.175740seconds
   System Clock:                    1.000000GHz
   Transistor Latency:              1ns
   Runtime:                         10932 cycles
   Runtime:                         10.932000 us
   Stalls:                          1 cycles
   Executed Nodes:                  10930 cycles

********************************************************************************
   ========= Performance Analysis =================
   Setup Time:                      5238522918.000000ns
   Simulation Time:                 100175740185.000000ns
   System Clock:                    1.000000GHz
   Transistor Latency:              0ns
   Runtime:                         10932 cycles
   Runtime:                         0.000001 seconds
   Stalls:                          1 cycles
       Load Only:                   0 cycles
       Store Only:                  1 cycles
       Compute Only:                0 cycles
       Compute & Store:             0 cycles
       Load & Store:                0 cycles
       Load & Compute:              0 cycles
       Load & Compute & Store:      0 cycles
   Executed Nodes:                  10930 cycles
       Load Only:                   0 cycles
       Store Only:                  4 cycles
       Compute Only:                1 cycles
       Compute & Store:             21 cycles
       Load & Store:                0 cycles
       Load & Compute:              6 cycles
       Load & Compute & Store:      10898 cycles

   ========= Runtime FU's ========= (Max | Avg) ===
   Counter FU's:                      32 | 0.046838
   Integer Add/Sub FU's:               0 | 0.000000
   Integer Mul/Div FU's:               0 | 0.000000
   Integer Shifter FU's:               0 | 0.000000
   Integer Bitwise FU's:               1 | 0.000091
   Floating Point Float Add/Sub:       0 | 0.000000
   Floating Point Double Add/Sub:      0 | 0.000000
   Floating Point Float Mul/Div:      34 | 0.044252
   Floating Point Double Mul/Div:      0 | 0.000000
   0 Cycle Compare FU's:             102 | 0.046945
   GEP Instruction FU's:              96 | 0.046835
   Type Conversion FU's:               7 | 0.006782

   ========= Static FU's ==========================
   Counter FU's:                    0
   Integer Add/Sub FU's:            0
   Integer Mul/Div FU's:            0
   Integer Shifter FU's:            0
   Integer Bitwise FU's:            0
   Floating Point Float Add/Sub:    0
   Floating Point Double Add/Sub:   0
   Floating Point Float Mul/Div:    0
   Floating Point Double Mul/Div:   0
   0 Cycle Compare FU's:            0
   GEP Instruction FU's:            0
   Type Conversion FU's:            0
   Other:                           0

   ========= Pipeline Register Usage =============
   Total Number of Registers:       5641
   Max Register Usage Per Cycle:    137
   Avg Register Usage Per Cycle:    12.130992
   Avg Register Size (Bytes):       5.980606

   ========= Memory Configuration =================
   Cache Bus Ports:                 0
   Shared Cache Size:               0kB
   Local Bus Ports:                 0
   Private SPM Size:                256kB
   Private Read Ports:              0
   Private Write Ports:             0
   Private Read Bus Width:          64
   Private Write Bus Width:         64
       Memory Reads:                0
       Memory Writes:               0
   ========= Power Analysis ======================
   FU Leakage Power:                0.045377 mW 
   FU Dynamic Power:                0.142576 mW 
   FU Total Power:                  0.187953 mW 

   Registers Leakage Power:          0.005281 mW 
   Registers Dynamic Power:          0.015326 mW 
       Register Reads (Bits):        132616
       Register Writes (Bits):       133658
   Registers Total Power:            0.020607 mW

   SPM Leakage Power:               0.104100 mW
   SPM Read Dynamic Power:          5.599688 mW
   SPM Write Dynamic Power:         4.937352 mW
   SPM Total Power:                 10.641140 mW

   Cache Leakage Power:             0.000000 mW
   Cache Read Dynamic Power:        0.000000 mW
   Cache Write Dynamic Power:       0.000000 mW
   Cache Total Power:               0.000000 mW

   Accelerator Power:               0.208559 mW
   Accelerator Power (SPM):         10.849700 mW
   Accelerator Power (Cache):       0.208559 mW

   ========= Area Analysis =======================
   FU Area:                         5472.068359 um^2 (0.005472 mm^2)
   Register Area:                   429.271088 um^2 (0.000429 mm^2)
   SPM Area:                        2177.365505 um^2 (0.002177 mm^2)
   Cache Area:                      0.000000 um^2 (0.000000 mm^2)

   Accelerator Area:                5901.339355 um^2 (0.005901 mm^2)
   Accelerator Area (SPM):          8078.704860 um^2 (0.008079 mm^2)
   Accelerator Area (Cache):        5901.339355 um^2 (0.005901 mm^2)

   ========= SPM Resizing  =======================
   SPM Optimized Leakage Power:     0.004248 mW
   SPM Opt Area:                    178.524902 um^2

7649787500: global: Timer #0 started at tick 7649787500
7650081250: global: Timer #2 started at tick 7650081250
7650421875: global: Timer #2 stopped at tick 7650421875. Duration: 340625
7663614500: system.acctest.elem_matrix0_dma: SRC:0x0000000024020020, DST:0x00000000820fb0c0, LEN:65536
7663964375: global: Timer #0 stopped at tick 7663964375. Duration: 14176875
7663980625: global: Number of accelerators running = 2
7669912500: system.acctest.elem_matrix0_dma: Transfer completed in 6.298 us
7669988125: global: Timer #0 started at tick 7669988125
7670308125: global: Timer #1 started at tick 7670308125
7670486875: global: Timer #1 stopped at tick 7670486875. Duration: 178750
7670699375: global: DAG ID = 1
7670713125: global: Node ID = 1
7670731250: global: Node deadline difference = -2266
7670743750: global: Predicted memory time / byte = 0.000209749 us/byte
7670756250: global: Predicted memory time = 27.4922 us
7670768750: global: Predicted memory time / byte = 0.000209749 us/byte
7670781250: global: Predicted memory time = 13.7461 us
7670793750: global: Predicted memory time / byte = 0.000184395 us/byte
7670806250: global: Predicted memory time = 24.169 us
7670818750: global: Predicted memory time / byte = 9.59625e-05 us/byte
7670831250: global: Predicted memory time = 6.289 us
7670843750: global: Predicted memory access size = 0
7670856250: global: Predicted memory access size = 131072
7670868750: global: Predicted memory access size = 0
7670881250: global: Predicted memory access size = 65536
7684309500: system.acctest.elem_matrix0_dma: SRC:0x000000008217b0c0, DST:0x0000000024000020, LEN:65536
7684510625: global: Timer #0 stopped at tick 7684510625. Duration: 14522500
7684526875: global: Number of accelerators running = 2
7696285500: system.acctest.elem_matrix0_dma: Transfer completed in 11.976 us
7696493125: global: Timer #0 started at tick 7696493125
7696939375: global: Timer #1 started at tick 7696939375
7697503750: global: Timer #1 stopped at tick 7697503750. Duration: 564375
7710945875: system.acctest.elem_matrix0_dma: SRC:0x00000000820baf40, DST:0x0000000024010020, LEN:65536
7711168125: global: Timer #0 stopped at tick 7711168125. Duration: 14675000
7711184375: global: Number of accelerators running = 2
7722891875: system.acctest.elem_matrix0_dma: Transfer completed in 11.946 us
7722967500: global: Timer #0 started at tick 7722967500
7723458125: global: Timer #1 started at tick 7723458125
7723827500: global: Timer #1 stopped at tick 7723827500. Duration: 369375
7725363750: global: Timer #0 stopped at tick 7725363750. Duration: 2396250
7725380000: global: Number of accelerators running = 2
********************************************************************************
system.acctest.elem_matrix0.compute
   ========= Performance Analysis =============
   Setup Time:                      5.297424seconds
   Simulation Time:                 97.516445seconds
   System Clock:                    1.000000GHz
   Transistor Latency:              1ns
   Runtime:                         10932 cycles
   Runtime:                         10.932000 us
   Stalls:                          1 cycles
   Executed Nodes:                  10930 cycles

********************************************************************************
   ========= Performance Analysis =================
   Setup Time:                      5297423914.000000ns
   Simulation Time:                 97516444584.000000ns
   System Clock:                    1.000000GHz
   Transistor Latency:              0ns
   Runtime:                         10932 cycles
   Runtime:                         0.000001 seconds
   Stalls:                          1 cycles
       Load Only:                   0 cycles
       Store Only:                  1 cycles
       Compute Only:                0 cycles
       Compute & Store:             0 cycles
       Load & Store:                0 cycles
       Load & Compute:              0 cycles
       Load & Compute & Store:      0 cycles
   Executed Nodes:                  10930 cycles
       Load Only:                   0 cycles
       Store Only:                  4 cycles
       Compute Only:                1 cycles
       Compute & Store:             21 cycles
       Load & Store:                0 cycles
       Load & Compute:              6 cycles
       Load & Compute & Store:      10898 cycles

   ========= Runtime FU's ========= (Max | Avg) ===
   Counter FU's:                      32 | 0.046838
   Integer Add/Sub FU's:               0 | 0.000000
   Integer Mul/Div FU's:               0 | 0.000000
   Integer Shifter FU's:               0 | 0.000000
   Integer Bitwise FU's:               1 | 0.000091
   Floating Point Float Add/Sub:       0 | 0.000000
   Floating Point Double Add/Sub:      0 | 0.000000
   Floating Point Float Mul/Div:      34 | 0.044252
   Floating Point Double Mul/Div:      0 | 0.000000
   0 Cycle Compare FU's:             102 | 0.046945
   GEP Instruction FU's:              96 | 0.046835
   Type Conversion FU's:               7 | 0.006782

   ========= Static FU's ==========================
   Counter FU's:                    0
   Integer Add/Sub FU's:            0
   Integer Mul/Div FU's:            0
   Integer Shifter FU's:            0
   Integer Bitwise FU's:            0
   Floating Point Float Add/Sub:    0
   Floating Point Double Add/Sub:   0
   Floating Point Float Mul/Div:    0
   Floating Point Double Mul/Div:   0
   0 Cycle Compare FU's:            0
   GEP Instruction FU's:            0
   Type Conversion FU's:            0
   Other:                           0

   ========= Pipeline Register Usage =============
   Total Number of Registers:       5641
   Max Register Usage Per Cycle:    137
   Avg Register Usage Per Cycle:    12.130992
   Avg Register Size (Bytes):       5.980606

   ========= Memory Configuration =================
   Cache Bus Ports:                 0
   Shared Cache Size:               0kB
   Local Bus Ports:                 0
   Private SPM Size:                256kB
   Private Read Ports:              0
   Private Write Ports:             0
   Private Read Bus Width:          64
   Private Write Bus Width:         64
       Memory Reads:                0
       Memory Writes:               0
   ========= Power Analysis ======================
   FU Leakage Power:                0.045377 mW 
   FU Dynamic Power:                0.142576 mW 
   FU Total Power:                  0.187953 mW 

   Registers Leakage Power:          0.005281 mW 
   Registers Dynamic Power:          0.015326 mW 
       Register Reads (Bits):        132616
       Register Writes (Bits):       133658
   Registers Total Power:            0.020607 mW

   SPM Leakage Power:               0.104100 mW
   SPM Read Dynamic Power:          6.009405 mW
   SPM Write Dynamic Power:         4.673423 mW
   SPM Total Power:                 10.786928 mW

   Cache Leakage Power:             0.000000 mW
   Cache Read Dynamic Power:        0.000000 mW
   Cache Write Dynamic Power:       0.000000 mW
   Cache Total Power:               0.000000 mW

   Accelerator Power:               0.208559 mW
   Accelerator Power (SPM):         10.995488 mW
   Accelerator Power (Cache):       0.208559 mW

   ========= Area Analysis =======================
   FU Area:                         5472.068359 um^2 (0.005472 mm^2)
   Register Area:                   429.271088 um^2 (0.000429 mm^2)
   SPM Area:                        2177.365505 um^2 (0.002177 mm^2)
   Cache Area:                      0.000000 um^2 (0.000000 mm^2)

   Accelerator Area:                5901.339355 um^2 (0.005901 mm^2)
   Accelerator Area (SPM):          8078.704860 um^2 (0.008079 mm^2)
   Accelerator Area (Cache):        5901.339355 um^2 (0.005901 mm^2)

   ========= SPM Resizing  =======================
   SPM Optimized Leakage Power:     0.004248 mW
   SPM Opt Area:                    178.524902 um^2

7736147500: global: Timer #0 started at tick 7736147500
7736440000: global: Timer #2 started at tick 7736440000
7736716875: global: Timer #2 stopped at tick 7736716875. Duration: 276875
7749909500: system.acctest.elem_matrix0_dma: SRC:0x0000000024020020, DST:0x000000008218b0c0, LEN:65536
7750259375: global: Timer #0 stopped at tick 7750259375. Duration: 14111875
7750275625: global: Number of accelerators running = 2
7756196500: system.acctest.elem_matrix0_dma: Transfer completed in 6.287 us
7756272500: global: Timer #0 started at tick 7756272500
7756592500: global: Timer #1 started at tick 7756592500
7756901875: global: Timer #1 stopped at tick 7756901875. Duration: 309375
7757114375: global: DAG ID = 1
7757128125: global: Node ID = 10
7757146250: global: Node deadline difference = -2179
7757158750: global: Predicted memory time / byte = 0.000207067 us/byte
7757171250: global: Predicted memory time = 27.1406 us
7757183750: global: Predicted memory time / byte = 0.000207067 us/byte
7757196250: global: Predicted memory time = 13.5703 us
7757208750: global: Predicted memory time / byte = 0.000184372 us/byte
7757221250: global: Predicted memory time = 24.166 us
7757233750: global: Predicted memory time / byte = 9.57947e-05 us/byte
7757246250: global: Predicted memory time = 6.278 us
7757258750: global: Predicted memory access size = 0
7757271250: global: Predicted memory access size = 131072
7757283750: global: Predicted memory access size = 0
7757296250: global: Predicted memory access size = 65536
7770730875: system.acctest.elem_matrix0_dma: SRC:0x00000000820fb0c0, DST:0x0000000024000020, LEN:65536
7770931875: global: Timer #0 stopped at tick 7770931875. Duration: 14659375
7770948125: global: Number of accelerators running = 2
7782679875: system.acctest.elem_matrix0_dma: Transfer completed in 11.949 us
7782888125: global: Timer #0 started at tick 7782888125
7783334375: global: Timer #1 started at tick 7783334375
7783783125: global: Timer #1 stopped at tick 7783783125. Duration: 448750
7797260875: system.acctest.elem_matrix0_dma: SRC:0x000000008208af40, DST:0x0000000024010020, LEN:65536
7797483125: global: Timer #0 stopped at tick 7797483125. Duration: 14595000
7797499375: global: Number of accelerators running = 2
7809225875: system.acctest.elem_matrix0_dma: Transfer completed in 11.965 us
7809302500: global: Timer #0 started at tick 7809302500
7809793125: global: Timer #1 started at tick 7809793125
7810183125: global: Timer #1 stopped at tick 7810183125. Duration: 390000
7811733750: global: Timer #0 stopped at tick 7811733750. Duration: 2431250
7811750000: global: Number of accelerators running = 2
********************************************************************************
system.acctest.elem_matrix0.compute
   ========= Performance Analysis =============
   Setup Time:                      5.779564seconds
   Simulation Time:                 94.505366seconds
   System Clock:                    1.000000GHz
   Transistor Latency:              1ns
   Runtime:                         10932 cycles
   Runtime:                         10.932000 us
   Stalls:                          0 cycles
   Executed Nodes:                  10931 cycles

********************************************************************************
   ========= Performance Analysis =================
   Setup Time:                      5779563725.000000ns
   Simulation Time:                 94505366257.000000ns
   System Clock:                    1.000000GHz
   Transistor Latency:              0ns
   Runtime:                         10932 cycles
   Runtime:                         0.000001 seconds
   Stalls:                          0 cycles
       Load Only:                   0 cycles
       Store Only:                  0 cycles
       Compute Only:                0 cycles
       Compute & Store:             0 cycles
       Load & Store:                0 cycles
       Load & Compute:              0 cycles
       Load & Compute & Store:      0 cycles
   Executed Nodes:                  10931 cycles
       Load Only:                   0 cycles
       Store Only:                  5 cycles
       Compute Only:                1 cycles
       Compute & Store:             21 cycles
       Load & Store:                0 cycles
       Load & Compute:              7 cycles
       Load & Compute & Store:      10897 cycles

   ========= Runtime FU's ========= (Max | Avg) ===
   Counter FU's:                      32 | 0.046838
   Integer Add/Sub FU's:               0 | 0.000000
   Integer Mul/Div FU's:               0 | 0.000000
   Integer Shifter FU's:               0 | 0.000000
   Integer Bitwise FU's:               1 | 0.000091
   Floating Point Float Add/Sub:      34 | 0.044252
   Floating Point Double Add/Sub:      0 | 0.000000
   Floating Point Float Mul/Div:       0 | 0.000000
   Floating Point Double Mul/Div:      0 | 0.000000
   0 Cycle Compare FU's:             102 | 0.046974
   GEP Instruction FU's:              96 | 0.046835
   Type Conversion FU's:               7 | 0.006782

   ========= Static FU's ==========================
   Counter FU's:                    0
   Integer Add/Sub FU's:            0
   Integer Mul/Div FU's:            0
   Integer Shifter FU's:            0
   Integer Bitwise FU's:            0
   Floating Point Float Add/Sub:    0
   Floating Point Double Add/Sub:   0
   Floating Point Float Mul/Div:    0
   Floating Point Double Mul/Div:   0
   0 Cycle Compare FU's:            0
   GEP Instruction FU's:            0
   Type Conversion FU's:            0
   Other:                           0

   ========= Pipeline Register Usage =============
   Total Number of Registers:       5641
   Max Register Usage Per Cycle:    138
   Avg Register Usage Per Cycle:    12.130992
   Avg Register Size (Bytes):       5.980606

   ========= Memory Configuration =================
   Cache Bus Ports:                 0
   Shared Cache Size:               0kB
   Local Bus Ports:                 0
   Private SPM Size:                256kB
   Private Read Ports:              0
   Private Write Ports:             0
   Private Read Bus Width:          64
   Private Write Bus Width:         64
       Memory Reads:                0
       Memory Writes:               0
   ========= Power Analysis ======================
   FU Leakage Power:                0.519269 mW 
   FU Dynamic Power:                0.154621 mW 
[...]
       Load & Compute:              7 cycles
       Load & Compute & Store:      10897 cycles

   ========= Runtime FU's ========= (Max | Avg) ===
   Counter FU's:                      32 | 0.046838
   Integer Add/Sub FU's:               0 | 0.000000
   Integer Mul/Div FU's:               0 | 0.000000
   Integer Shifter FU's:               0 | 0.000000
   Integer Bitwise FU's:               1 | 0.000091
   Floating Point Float Add/Sub:      34 | 0.044252
   Floating Point Double Add/Sub:      0 | 0.000000
   Floating Point Float Mul/Div:       0 | 0.000000
   Floating Point Double Mul/Div:      0 | 0.000000
   0 Cycle Compare FU's:             102 | 0.046974
   GEP Instruction FU's:              96 | 0.046835
   Type Conversion FU's:               7 | 0.006782

   ========= Static FU's ==========================
   Counter FU's:                    0
   Integer Add/Sub FU's:            0
   Integer Mul/Div FU's:            0
   Integer Shifter FU's:            0
   Integer Bitwise FU's:            0
   Floating Point Float Add/Sub:    0
   Floating Point Double Add/Sub:   0
   Floating Point Float Mul/Div:    0
   Floating Point Double Mul/Div:   0
   0 Cycle Compare FU's:            0
   GEP Instruction FU's:            0
   Type Conversion FU's:            0
   Other:                           0

   ========= Pipeline Register Usage =============
   Total Number of Registers:       5641
   Max Register Usage Per Cycle:    138
   Avg Register Usage Per Cycle:    12.130992
   Avg Register Size (Bytes):       5.980606

   ========= Memory Configuration =================
   Cache Bus Ports:                 0
   Shared Cache Size:               0kB
   Local Bus Ports:                 0
   Private SPM Size:                256kB
   Private Read Ports:              0
   Private Write Ports:             0
   Private Read Bus Width:          64
   Private Write Bus Width:         64
       Memory Reads:                0
       Memory Writes:               0
   ========= Power Analysis ======================
   FU Leakage Power:                0.519269 mW 
   FU Dynamic Power:                0.154621 mW 
   FU Total Power:                  0.673890 mW 

   Registers Leakage Power:          0.005281 mW 
   Registers Dynamic Power:          0.015326 mW 
       Register Reads (Bits):        132616
       Register Writes (Bits):       133658
   Registers Total Power:            0.020607 mW

   SPM Leakage Power:               0.104100 mW
   SPM Read Dynamic Power:          34.636637 mW
   SPM Write Dynamic Power:         25.988718 mW
   SPM Total Power:                 60.729455 mW

   Cache Leakage Power:             0.000000 mW
   Cache Read Dynamic Power:        0.000000 mW
   Cache Write Dynamic Power:       0.000000 mW
   Cache Total Power:               0.000000 mW

   Accelerator Power:               0.694497 mW
   Accelerator Power (SPM):         61.423952 mW
   Accelerator Power (Cache):       0.694497 mW

   ========= Area Analysis =======================
   FU Area:                         70212.562500 um^2 (0.070213 mm^2)
   Register Area:                   429.271088 um^2 (0.000429 mm^2)
   SPM Area:                        2177.365505 um^2 (0.002177 mm^2)
   Cache Area:                      0.000000 um^2 (0.000000 mm^2)

   Accelerator Area:                70641.835938 um^2 (0.070642 mm^2)
   Accelerator Area (SPM):          72819.201442 um^2 (0.072819 mm^2)
   Accelerator Area (Cache):        70641.835938 um^2 (0.070642 mm^2)

   ========= SPM Resizing  =======================
   SPM Optimized Leakage Power:     0.004248 mW
   SPM Opt Area:                    178.524902 um^2

28190337500: global: Timer #0 started at tick 28190337500
28203615875: system.acctest.elem_matrix0_dma: SRC:0x0000000024020020, DST:0x00000000828e4ac0, LEN:65536
28203965000: global: Timer #0 stopped at tick 28203965000. Duration: 13627500
28203981250: global: Number of accelerators running = 1
28209901875: system.acctest.elem_matrix0_dma: Transfer completed in 6.286 us
28209977500: global: Timer #0 started at tick 28209977500
28210292500: global: Timer #1 started at tick 28210292500
28210530625: global: Timer #1 stopped at tick 28210530625. Duration: 238125
28210741875: global: DAG ID = 1
28210755625: global: Node ID = 119
28210779375: global: DAG execution time = 20920
28210792500: global: DAG deadline difference = 13920
28210809375: global: Node deadline difference = 13920
28210821875: global: Predicted memory time / byte = 0.000149503 us/byte
28210834375: global: Predicted memory time = 19.5956 us
28210846875: global: Predicted memory time / byte = 0.000149503 us/byte
28210859375: global: Predicted memory time = 9.7978 us
28210871875: global: Predicted memory time / byte = 0.000184441 us/byte
28210884375: global: Predicted memory time = 24.175 us
28210896875: global: Predicted memory time / byte = 9.56573e-05 us/byte
28210909375: global: Predicted memory time = 6.269 us
28210921875: global: Predicted memory access size = 0
28210934375: global: Predicted memory access size = 131072
28210946875: global: Predicted memory access size = 0
28210959375: global: Predicted memory access size = 65536
28224280875: system.acctest.elem_matrix0_dma: SRC:0x00000000832c1a00, DST:0x0000000024000020, LEN:65536
28224495000: global: Timer #0 stopped at tick 28224495000. Duration: 14517500
28224511250: global: Number of accelerators running = 1
28236249875: system.acctest.elem_matrix0_dma: Transfer completed in 11.969 us
28236413125: global: Timer #0 started at tick 28236413125
28236896250: global: Timer #1 started at tick 28236896250
28237346875: global: Timer #1 stopped at tick 28237346875. Duration: 450625
28238794375: global: Timer #0 stopped at tick 28238794375. Duration: 2381250
28238810625: global: Number of accelerators running = 1
********************************************************************************
system.acctest.elem_matrix0.compute
   ========= Performance Analysis =============
   Setup Time:                      6.723857seconds
   Simulation Time:                 125.636905seconds
   System Clock:                    1.000000GHz
   Transistor Latency:              1ns
   Runtime:                         8344 cycles
   Runtime:                         8.344000 us
   Stalls:                          106 cycles
   Executed Nodes:                  8237 cycles

********************************************************************************
   ========= Performance Analysis =================
   Setup Time:                      6723857086.000000ns
   Simulation Time:                 125636904608.000000ns
   System Clock:                    1.000000GHz
   Transistor Latency:              0ns
   Runtime:                         8344 cycles
   Runtime:                         0.000001 seconds
   Stalls:                          106 cycles
       Load Only:                   0 cycles
       Store Only:                  101 cycles
       Compute Only:                0 cycles
       Compute & Store:             5 cycles
       Load & Store:                0 cycles
       Load & Compute:              0 cycles
       Load & Compute & Store:      0 cycles
   Executed Nodes:                  8237 cycles
       Load Only:                   0 cycles
       Store Only:                  11 cycles
       Compute Only:                2086 cycles
       Compute & Store:             3860 cycles
       Load & Store:                0 cycles
       Load & Compute:              519 cycles
       Load & Compute & Store:      1761 cycles

   ========= Runtime FU's ========= (Max | Avg) ===
   Counter FU's:                      32 | 0.061365
   Integer Add/Sub FU's:               0 | 0.000000
   Integer Mul/Div FU's:               0 | 0.000000
   Integer Shifter FU's:               0 | 0.000000
   Integer Bitwise FU's:               1 | 0.000120
   Floating Point Float Add/Sub:      76 | 0.476229
   Floating Point Double Add/Sub:      0 | 0.000000
   Floating Point Float Mul/Div:      53 | 0.193968
   Floating Point Double Mul/Div:      0 | 0.000000
   0 Cycle Compare FU's:              15 | 0.024744
   GEP Instruction FU's:              64 | 0.061361
   Type Conversion FU's:              60 | 0.132426

   ========= Static FU's ==========================
   Counter FU's:                    0
   Integer Add/Sub FU's:            0
   Integer Mul/Div FU's:            0
   Integer Shifter FU's:            0
   Integer Bitwise FU's:            0
   Floating Point Float Add/Sub:    0
   Floating Point Double Add/Sub:   0
   Floating Point Float Mul/Div:    0
   Floating Point Double Mul/Div:   0
   0 Cycle Compare FU's:            0
   GEP Instruction FU's:            0
   Type Conversion FU's:            0
   Other:                           0

   ========= Pipeline Register Usage =============
   Total Number of Registers:       5641
   Max Register Usage Per Cycle:    131
   Avg Register Usage Per Cycle:    31.540748
   Avg Register Size (Bytes):       5.745110

   ========= Memory Configuration =================
   Cache Bus Ports:                 0
   Shared Cache Size:               0kB
   Local Bus Ports:                 0
   Private SPM Size:                256kB
   Private Read Ports:              0
   Private Write Ports:             0
   Private Read Bus Width:          64
   Private Write Bus Width:         64
       Memory Reads:                0
       Memory Writes:               0
   ========= Power Analysis ======================
   FU Leakage Power:                1.204730 mW 
   FU Dynamic Power:                1.740443 mW 
   FU Total Power:                  2.945173 mW 

   Registers Leakage Power:          0.013106 mW 
   Registers Dynamic Power:          0.057551 mW 
       Register Reads (Bits):        263176
       Register Writes (Bits):       264729
   Registers Total Power:            0.070657 mW

   SPM Leakage Power:               0.104100 mW
   SPM Read Dynamic Power:          34.661668 mW
   SPM Write Dynamic Power:         26.040313 mW
   SPM Total Power:                 60.806081 mW

   Cache Leakage Power:             0.000000 mW
   Cache Read Dynamic Power:        0.000000 mW
   Cache Write Dynamic Power:       0.000000 mW
   Cache Total Power:               0.000000 mW

   Accelerator Power:               3.015830 mW
   Accelerator Power (SPM):         63.821911 mW
   Accelerator Power (Cache):       3.015830 mW

   ========= Area Analysis =======================
   FU Area:                         162305.218750 um^2 (0.162305 mm^2)
   Register Area:                   1065.283691 um^2 (0.001065 mm^2)
   SPM Area:                        2177.365505 um^2 (0.002177 mm^2)
   Cache Area:                      0.000000 um^2 (0.000000 mm^2)

   Accelerator Area:                163370.500000 um^2 (0.163371 mm^2)
   Accelerator Area (SPM):          165547.865505 um^2 (0.165548 mm^2)
   Accelerator Area (Cache):        163370.500000 um^2 (0.163371 mm^2)

   ========= SPM Resizing  =======================
   SPM Optimized Leakage Power:     0.004070 mW
   SPM Opt Area:                    175.836670 um^2

28246985000: global: Timer #0 started at tick 28246985000
28247268125: global: Timer #2 started at tick 28247268125
28247519375: global: Timer #2 stopped at tick 28247519375. Duration: 251250
28247761875: global: DAG ID = 2
28247775625: global: Node ID = 142
28247788750: global: Node deadline difference = 14016
28247801250: global: Predicted memory time / byte = 0.000155448 us/byte
28247813750: global: Predicted memory time = 10.1875 us
28247826250: global: Predicted memory time / byte = 0.000155448 us/byte
28247838750: global: Predicted memory time = 10.1875 us
28247851250: global: Predicted memory time / byte = 0.000185059 us/byte
28247863750: global: Predicted memory time = 12.128 us
28247876250: global: Predicted memory time / byte = 0 us/byte
28247888750: global: Predicted memory time = 0 us
28247901250: global: Predicted memory access size = 0
28247913750: global: Predicted memory access size = 65536
28247926250: global: Predicted memory access size = 0
28247938750: global: Predicted memory access size = 0
28261344500: system.acctest.elem_matrix0_dma: SRC:0x00000000832f1a00, DST:0x0000000024000020, LEN:65536
28261573750: global: Timer #0 stopped at tick 28261573750. Duration: 14588750
28261590000: global: Number of accelerators running = 1
28273352500: system.acctest.elem_matrix0_dma: Transfer completed in 12.008 us
28273516250: global: Timer #0 started at tick 28273516250
28273914375: global: Timer #1 started at tick 28273914375
28274365000: global: Timer #1 stopped at tick 28274365000. Duration: 450625
28275850000: global: Timer #0 stopped at tick 28275850000. Duration: 2333750
28275866250: global: Number of accelerators running = 1
********************************************************************************
system.acctest.elem_matrix0.compute
   ========= Performance Analysis =============
   Setup Time:                      8.370190seconds
   Simulation Time:                 164.641616seconds
   System Clock:                    1.000000GHz
   Transistor Latency:              1ns
   Runtime:                         10932 cycles
   Runtime:                         10.932000 us
   Stalls:                          1 cycles
   Executed Nodes:                  10930 cycles

********************************************************************************
   ========= Performance Analysis =================
   Setup Time:                      8370190151.999999ns
   Simulation Time:                 164641615812.000000ns
   System Clock:                    1.000000GHz
   Transistor Latency:              0ns
   Runtime:                         10932 cycles
   Runtime:                         0.000001 seconds
   Stalls:                          1 cycles
       Load Only:                   0 cycles
       Store Only:                  1 cycles
       Compute Only:                0 cycles
       Compute & Store:             0 cycles
       Load & Store:                0 cycles
       Load & Compute:              0 cycles
       Load & Compute & Store:      0 cycles
   Executed Nodes:                  10930 cycles
       Load Only:                   0 cycles
       Store Only:                  4 cycles
       Compute Only:                1 cycles
       Compute & Store:             21 cycles
       Load & Store:                0 cycles
       Load & Compute:              6 cycles
       Load & Compute & Store:      10898 cycles

   ========= Runtime FU's ========= (Max | Avg) ===
   Counter FU's:                      32 | 0.046838
   Integer Add/Sub FU's:               0 | 0.000000
   Integer Mul/Div FU's:               0 | 0.000000
   Integer Shifter FU's:               0 | 0.000000
   Integer Bitwise FU's:               1 | 0.000091
   Floating Point Float Add/Sub:       0 | 0.000000
   Floating Point Double Add/Sub:      0 | 0.000000
   Floating Point Float Mul/Div:      34 | 0.044252
   Floating Point Double Mul/Div:      0 | 0.000000
   0 Cycle Compare FU's:             102 | 0.046945
   GEP Instruction FU's:              96 | 0.046835
   Type Conversion FU's:               7 | 0.006782

   ========= Static FU's ==========================
   Counter FU's:                    0
   Integer Add/Sub FU's:            0
   Integer Mul/Div FU's:            0
   Integer Shifter FU's:            0
   Integer Bitwise FU's:            0
   Floating Point Float Add/Sub:    0
   Floating Point Double Add/Sub:   0
   Floating Point Float Mul/Div:    0
   Floating Point Double Mul/Div:   0
   0 Cycle Compare FU's:            0
   GEP Instruction FU's:            0
   Type Conversion FU's:            0
   Other:                           0

   ========= Pipeline Register Usage =============
   Total Number of Registers:       5641
   Max Register Usage Per Cycle:    137
   Avg Register Usage Per Cycle:    12.130992
   Avg Register Size (Bytes):       5.980606

   ========= Memory Configuration =================
   Cache Bus Ports:                 0
   Shared Cache Size:               0kB
   Local Bus Ports:                 0
   Private SPM Size:                256kB
   Private Read Ports:              0
   Private Write Ports:             0
   Private Read Bus Width:          64
   Private Write Bus Width:         64
       Memory Reads:                0
       Memory Writes:               0
   ========= Power Analysis ======================
   FU Leakage Power:                0.045377 mW 
   FU Dynamic Power:                0.142576 mW 
   FU Total Power:                  0.187953 mW 

   Registers Leakage Power:          0.005281 mW 
   Registers Dynamic Power:          0.015326 mW 
       Register Reads (Bits):        132616
       Register Writes (Bits):       133658
   Registers Total Power:            0.020607 mW

   SPM Leakage Power:               0.104100 mW
   SPM Read Dynamic Power:          34.711730 mW
   SPM Write Dynamic Power:         26.091908 mW
   SPM Total Power:                 60.907739 mW

   Cache Leakage Power:             0.000000 mW
   Cache Read Dynamic Power:        0.000000 mW
   Cache Write Dynamic Power:       0.000000 mW
   Cache Total Power:               0.000000 mW

   Accelerator Power:               0.208559 mW
   Accelerator Power (SPM):         61.116298 mW
   Accelerator Power (Cache):       0.208559 mW

   ========= Area Analysis =======================
   FU Area:                         5472.068359 um^2 (0.005472 mm^2)
   Register Area:                   429.271088 um^2 (0.000429 mm^2)
   SPM Area:                        2177.365505 um^2 (0.002177 mm^2)
   Cache Area:                      0.000000 um^2 (0.000000 mm^2)

   Accelerator Area:                5901.339355 um^2 (0.005901 mm^2)
   Accelerator Area (SPM):          8078.704860 um^2 (0.008079 mm^2)
   Accelerator Area (Cache):        5901.339355 um^2 (0.005901 mm^2)

   ========= SPM Resizing  =======================
   SPM Optimized Leakage Power:     0.004248 mW
   SPM Opt Area:                    178.524902 um^2

28286617500: global: Timer #0 started at tick 28286617500
28299922375: system.acctest.elem_matrix0_dma: SRC:0x0000000024020020, DST:0x0000000083311a00, LEN:65536
28300280625: global: Timer #0 stopped at tick 28300280625. Duration: 13663125
28300296875: global: Number of accelerators running = 1
28306214375: system.acctest.elem_matrix0_dma: Transfer completed in 6.292 us
28306290000: global: Timer #0 started at tick 28306290000
28306650625: global: Timer #1 started at tick 28306650625
28306945000: global: Timer #1 stopped at tick 28306945000. Duration: 294375
28307156250: global: DAG ID = 2
28307170000: global: Node ID = 143
28307193750: global: DAG execution time = 21017
28307206875: global: DAG deadline difference = 14017
28307223750: global: Node deadline difference = 14017
28307236250: global: Predicted memory time / byte = 0.000155368 us/byte
28307248750: global: Predicted memory time = 20.3644 us
28307261250: global: Predicted memory time / byte = 0.000155368 us/byte
28307273750: global: Predicted memory time = 10.1822 us
28307286250: global: Predicted memory time / byte = 0.000184341 us/byte
28307298750: global: Predicted memory time = 12.081 us
28307311250: global: Predicted memory time / byte = 9.64813e-05 us/byte
28307323750: global: Predicted memory time = 6.323 us
28307336250: global: Predicted memory access size = 0
28307348750: global: Predicted memory access size = 65536
28307361250: global: Predicted memory access size = 0
28307373750: global: Predicted memory access size = 65536
28307477500: global: Timer #0 stopped at tick 28307477500. Duration: 1187500
28307493750: global: Number of accelerators running = 0
28307583750: global: Number of forwards = 30
28307913125: global: Number of colocations = 19
28307932500: global: Number of DAG deadlines met = 0
28307951875: global: Number of node deadlines met = 62
28307985625: global: Total predicted compute time = 18327 us
Exiting @ tick 28308237500 because m5_exit instruction encountered
