gem5 Simulator System.  http://gem5.org
gem5 is copyrighted software; use the --copyright option for details.

gem5 compiled May  2 2023 17:53:28
gem5 started May  2 2023 18:00:10
gem5 executing on node4x10a.cs.rochester.edu, pid 78232
command line: /u/sgupta45/gem5-SALAM/build/ARM/gem5_bus.opt --debug-flags=HWACC,CommInterface,LLVMInterface,StreamDma,NoncoherentDma,TickTimer,SchedulerStats --outdir=BM_ARM_OUT/solo_app/canny_0_deblur_0_gru_1_harris_0_lstm_0_scale_0_FCFS configs/SALAM/scheduler.py --mem-size=4GB --mem-type=LPDDR5_6400_1x16_BG_BL32 --kernel=/u/sgupta45/gem5-SALAM/benchmarks/scheduler/sw/bin_solo_app/canny_0_deblur_0_gru_1_harris_0_lstm_0_scale_0_FCFS.elf --vans-config-path=/u/sgupta45/VANS/config --disk-image=/u/sgupta45/gem5-SALAM/baremetal/common/fake.iso --machine-type=VExpress_GEM5_V1 --dtb-file=none --bare-metal --cpu-type=ex5_LITTLE --cpu-clock=1.6GHz --accpath=/u/sgupta45/gem5-SALAM/benchmarks --caches --cacheline_size=64 --l1d_size=32kB --l1d_assoc=4 --l1i_size=32kB --l1i_assoc=2

info: Standard input is not a terminal, disabling listeners.
Global frequency set at 1000000000000 ticks per second
Cycle Counts Loaded!
Cycle Counts Loaded!
Cycle Counts Loaded!
Cycle Counts Loaded!
Cycle Counts Loaded!
Cycle Counts Loaded!
Cycle Counts Loaded!
Cycle Counts Loaded!
Cycle Counts Loaded!
Cycle Counts Loaded!
Cycle Counts Loaded!
**** REAL SIMULATION ****
3491527500: global: Timer #2 started at tick 3491527500
3491967500: global: Timer #2 stopped at tick 3491967500. Duration: 440000
3524220875: system.acctest.elem_matrix0_dma: SRC:0x0000000082178940, DST:0x0000000024000020, LEN:65536
3524735000: global: Number of accelerators running = 1
3536340875: system.acctest.elem_matrix0_dma: Transfer completed in 12.12 us
3536939375: global: Timer #0 started at tick 3536939375
3551375875: system.acctest.elem_matrix0_dma: SRC:0x0000000082078780, DST:0x0000000024010020, LEN:65536
3551960000: global: Timer #0 stopped at tick 3551960000. Duration: 15020625
3551978750: global: Number of accelerators running = 1
3563319875: system.acctest.elem_matrix0_dma: Transfer completed in 11.944 us
3563408750: global: Timer #0 started at tick 3563408750
3564949375: global: Timer #0 stopped at tick 3564949375. Duration: 1540625
3564963750: global: Number of accelerators running = 1
********************************************************************************
system.acctest.elem_matrix0.compute
   ========= Performance Analysis =============
   Setup Time:                      2.89337seconds
   Simulation Time:                 69.0914seconds
   System Clock:                    1GHz
   Transistor Latency:              1ns
   Runtime:                         10932 cycles
   Runtime:                         10.932 us
   Stalls:                          0 cycles
   Executed Nodes:                  10931 cycles

********************************************************************************
   ========= Performance Analysis =================
   Setup Time:                      2.89337e+09ns
   Simulation Time:                 6.90914e+10ns
   System Clock:                    1GHz
   Transistor Latency:              0ns
   Runtime:                         10932 cycles
   Runtime:                         1.0932e-06 seconds
   Stalls:                          0 cycles
       Load Only:                   0 cycles
       Store Only:                  0 cycles
       Compute Only:                0 cycles
       Compute & Store:             0 cycles
       Load & Store:                0 cycles
       Load & Compute:              0 cycles
       Load & Compute & Store:      0 cycles
   Executed Nodes:                  10931 cycles
       Load Only:                   0 cycles
       Store Only:                  5 cycles
       Compute Only:                1 cycles
       Compute & Store:             21 cycles
       Load & Store:                0 cycles
       Load & Compute:              7 cycles
       Load & Compute & Store:      10897 cycles

   ========= Runtime FU's ========= (Max | Avg) ===
   Counter FU's:                      32 | 0.046838
   Integer Add/Sub FU's:               0 | 0.000000
   Integer Mul/Div FU's:               0 | 0.000000
   Integer Shifter FU's:               0 | 0.000000
   Integer Bitwise FU's:               1 | 0.000091
   Floating Point Float Add/Sub:      34 | 0.044252
   Floating Point Double Add/Sub:      0 | 0.000000
   Floating Point Float Mul/Div:       0 | 0.000000
   Floating Point Double Mul/Div:      0 | 0.000000
   0 Cycle Compare FU's:             102 | 0.046974
   GEP Instruction FU's:              96 | 0.046835
   Type Conversion FU's:               7 | 0.006782

   ========= Static FU's ==========================
   Counter FU's:                    0
   Integer Add/Sub FU's:            0
   Integer Mul/Div FU's:            0
   Integer Shifter FU's:            0
   Integer Bitwise FU's:            0
   Floating Point Float Add/Sub:    0
   Floating Point Double Add/Sub:   0
   Floating Point Float Mul/Div:    0
   Floating Point Double Mul/Div:   0
   0 Cycle Compare FU's:            0
   GEP Instruction FU's:            0
   Type Conversion FU's:            0
   Other:                           0

   ========= Pipeline Register Usage =============
   Total Number of Registers:       5641
   Max Register Usage Per Cycle:    138
   Avg Register Usage Per Cycle:    12.130992
   Avg Register Size (Bytes):       5.980606

   ========= Memory Configuration =================
   Cache Bus Ports:                 0
   Shared Cache Size:               0kB
   Local Bus Ports:                 0
   Private SPM Size:                256kB
   Private Read Ports:              0
   Private Write Ports:             0
   Private Read Bus Width:          64
   Private Write Bus Width:         64
       Memory Reads:                0
       Memory Writes:               0
   ========= Power Analysis ======================
   FU Leakage Power:                0.519269 mW 
   FU Dynamic Power:                0.154621 mW 
   FU Total Power:                  0.673890 mW 

   Registers Leakage Power:          0.005281 mW 
   Registers Dynamic Power:          0.015326 mW 
       Register Reads (Bits):        132616
       Register Writes (Bits):       133658
   Registers Total Power:            0.020607 mW

   SPM Leakage Power:               0.104100 mW
   SPM Read Dynamic Power:          1.997266 mW
   SPM Write Dynamic Power:         0.953321 mW
   SPM Total Power:                 3.054688 mW

   Cache Leakage Power:             0.000000 mW
   Cache Read Dynamic Power:        0.000000 mW
   Cache Write Dynamic Power:       0.000000 mW
   Cache Total Power:               0.000000 mW

   Accelerator Power:               0.694497 mW
   Accelerator Power (SPM):         3.749184 mW
   Accelerator Power (Cache):       0.694497 mW

   ========= Area Analysis =======================
   FU Area:                         70212.562500 um^2 (0.070213 mm^2)
   Register Area:                   429.271088 um^2 (0.000429 mm^2)
   SPM Area:                        2177.365505 um^2 (0.002177 mm^2)
   Cache Area:                      0.000000 um^2 (0.000000 mm^2)

   Accelerator Area:                70641.835938 um^2 (0.070642 mm^2)
   Accelerator Area (SPM):          72819.201442 um^2 (0.072819 mm^2)
   Accelerator Area (Cache):        70641.835938 um^2 (0.070642 mm^2)

   ========= SPM Resizing  =======================
   SPM Optimized Leakage Power:     0.004248 mW
   SPM Opt Area:                    178.524902 um^2

3575653750: global: Timer #0 started at tick 3575653750
3575968125: global: Timer #2 started at tick 3575968125
3576135625: global: Timer #2 stopped at tick 3576135625. Duration: 167500
3576305000: global: Timer #2 started at tick 3576305000
3576352500: global: Timer #2 stopped at tick 3576352500. Duration: 47500
3577259375: global: DAG ID = 0
3577322500: global: Node ID = 0
3577340625: global: Node deadline difference = -2252
3577358750: global: Predicted memory time / byte = 0 us/byte
3577376875: global: Predicted memory time = 0 us
3577439375: global: Predicted memory time / byte = 0 us/byte
3577457500: global: Predicted memory time = 0 us
3577475625: global: Predicted memory time / byte = 0 us/byte
3577493750: global: Predicted memory time = 0 us
3577511875: global: Predicted memory time / byte = 0 us/byte
3577574375: global: Predicted memory time = 0 us
3591838750: system.acctest.elem_matrix0_dma: SRC:0x0000000082018780, DST:0x0000000024000020, LEN:65536
3593352375: system.acctest.elem_matrix1_dma: SRC:0x0000000024020020, DST:0x0000000024100020, LEN:65536
3593678750: global: Timer #0 stopped at tick 3593678750. Duration: 18025000
3593693125: global: Number of accelerators running = 2
3604242750: system.acctest.elem_matrix0_dma: Transfer completed in 12.404 us
3604317500: global: Timer #0 started at tick 3604317500
3605890000: global: Timer #0 stopped at tick 3605890000. Duration: 1572500
3605904375: global: Number of accelerators running = 2
3609861375: system.acctest.elem_matrix1_dma: Transfer completed in 16.509 us
3609954375: global: Timer #0 started at tick 3609954375
********************************************************************************
system.acctest.elem_matrix0.compute
   ========= Performance Analysis =============
   Setup Time:                      5.893827seconds
   Simulation Time:                 86.656033seconds
   System Clock:                    1.000000GHz
   Transistor Latency:              1ns
   Runtime:                         11350 cycles
   Runtime:                         11.350000 us
   Stalls:                          1 cycles
   Executed Nodes:                  11348 cycles

********************************************************************************
   ========= Performance Analysis =================
   Setup Time:                      5893827401.000000ns
   Simulation Time:                 86656032733.000000ns
   System Clock:                    1.000000GHz
   Transistor Latency:              0ns
   Runtime:                         11350 cycles
   Runtime:                         0.000001 seconds
   Stalls:                          1 cycles
       Load Only:                   0 cycles
       Store Only:                  1 cycles
       Compute Only:                0 cycles
       Compute & Store:             0 cycles
       Load & Store:                0 cycles
       Load & Compute:              0 cycles
       Load & Compute & Store:      0 cycles
   Executed Nodes:                  11348 cycles
       Load Only:                   0 cycles
       Store Only:                  4 cycles
       Compute Only:                2 cycles
       Compute & Store:             438 cycles
       Load & Store:                0 cycles
       Load & Compute:              423 cycles
       Load & Compute & Store:      10481 cycles

   ========= Runtime FU's ========= (Max | Avg) ===
   Counter FU's:                      32 | 0.045113
   Integer Add/Sub FU's:               0 | 0.000000
   Integer Mul/Div FU's:               0 | 0.000000
   Integer Shifter FU's:               0 | 0.000000
   Integer Bitwise FU's:               1 | 0.000088
   Floating Point Float Add/Sub:       0 | 0.000000
   Floating Point Double Add/Sub:      0 | 0.000000
   Floating Point Float Mul/Div:      34 | 0.043423
   Floating Point Double Mul/Div:      0 | 0.000000
   0 Cycle Compare FU's:             102 | 0.045649
   GEP Instruction FU's:              96 | 0.045110
   Type Conversion FU's:               7 | 0.006532

   ========= Static FU's ==========================
   Counter FU's:                    0
   Integer Add/Sub FU's:            0
   Integer Mul/Div FU's:            0
   Integer Shifter FU's:            0
   Integer Bitwise FU's:            0
   Floating Point Float Add/Sub:    0
   Floating Point Double Add/Sub:   0
   Floating Point Float Mul/Div:    0
   Floating Point Double Mul/Div:   0
   0 Cycle Compare FU's:            0
   GEP Instruction FU's:            0
   Type Conversion FU's:            0
   Other:                           0

   ========= Pipeline Register Usage =============
   Total Number of Registers:       5641
   Max Register Usage Per Cycle:    138
   Avg Register Usage Per Cycle:    11.684229
   Avg Register Size (Bytes):       5.980606

   ========= Memory Configuration =================
   Cache Bus Ports:                 0
   Shared Cache Size:               0kB
   Local Bus Ports:                 0
   Private SPM Size:                256kB
   Private Read Ports:              0
   Private Write Ports:             0
   Private Read Bus Width:          64
   Private Write Bus Width:         64
       Memory Reads:                0
       Memory Writes:               0
   ========= Power Analysis ======================
   FU Leakage Power:                0.045377 mW 
   FU Dynamic Power:                0.148189 mW 
   FU Total Power:                  0.193566 mW 

   Registers Leakage Power:          0.004841 mW 
   Registers Dynamic Power:          0.014586 mW 
       Register Reads (Bits):        132616
       Register Writes (Bits):       133658
   Registers Total Power:            0.019427 mW

   SPM Leakage Power:               0.104100 mW
   SPM Read Dynamic Power:          2.785289 mW
   SPM Write Dynamic Power:         2.044305 mW
   SPM Total Power:                 4.933694 mW

   Cache Leakage Power:             0.000000 mW
   Cache Read Dynamic Power:        0.000000 mW
   Cache Write Dynamic Power:       0.000000 mW
   Cache Total Power:               0.000000 mW

   Accelerator Power:               0.212992 mW
   Accelerator Power (SPM):         5.146687 mW
   Accelerator Power (Cache):       0.212992 mW

   ========= Area Analysis =======================
   FU Area:                         5472.068359 um^2 (0.005472 mm^2)
   Register Area:                   393.498505 um^2 (0.000393 mm^2)
   SPM Area:                        2177.365505 um^2 (0.002177 mm^2)
   Cache Area:                      0.000000 um^2 (0.000000 mm^2)

   Accelerator Area:                5865.566895 um^2 (0.005866 mm^2)
   Accelerator Area (SPM):          8042.932399 um^2 (0.008043 mm^2)
   Accelerator Area (Cache):        5865.566895 um^2 (0.005866 mm^2)

   ========= SPM Resizing  =======================
   SPM Optimized Leakage Power:     0.004248 mW
   SPM Opt Area:                    178.524902 um^2

3623315875: system.acctest.elem_matrix1_dma: SRC:0x0000000082038780, DST:0x0000000024110020, LEN:65536
3623553125: global: Timer #0 stopped at tick 3623553125. Duration: 13598750
3623567500: global: Number of accelerators running = 2
3623690625: global: Timer #0 started at tick 3623690625
3624005000: global: Timer #2 started at tick 3624005000
3624113125: global: Timer #2 stopped at tick 3624113125. Duration: 108125
3624431875: global: DAG ID = 0
3624445625: global: Node ID = 1
3624458750: global: Node deadline difference = -2530
3624471250: global: Predicted memory time / byte = 0 us/byte
3624483750: global: Predicted memory time = 0 us
3624496250: global: Predicted memory time / byte = 0 us/byte
3624508750: global: Predicted memory time = 0 us
3624521250: global: Predicted memory time / byte = 0 us/byte
3624533750: global: Predicted memory time = 0 us
3624546250: global: Predicted memory time / byte = 0 us/byte
3624558750: global: Predicted memory time = 0 us
3635300875: system.acctest.elem_matrix1_dma: Transfer completed in 11.985 us
3638145875: system.acctest.elem_matrix0_dma: SRC:0x0000000082028780, DST:0x0000000024000020, LEN:65536
3638370000: global: Timer #0 stopped at tick 3638370000. Duration: 14679375
3638383125: global: Number of accelerators running = 2
3638499375: global: Timer #0 started at tick 3638499375
3639891875: global: Timer #0 stopped at tick 3639891875. Duration: 1392500
3639906250: global: Number of accelerators running = 2
3650085875: system.acctest.elem_matrix0_dma: Transfer completed in 11.94 us
3650169375: global: Timer #0 started at tick 3650169375
********************************************************************************
system.acctest.elem_matrix1.compute
   ========= Performance Analysis =============
   Setup Time:                      6.089517seconds
   Simulation Time:                 79.931318seconds
   System Clock:                    1.000000GHz
   Transistor Latency:              1ns
   Runtime:                         10932 cycles
   Runtime:                         10.932000 us
   Stalls:                          1 cycles
   Executed Nodes:                  10930 cycles

********************************************************************************
   ========= Performance Analysis =================
   Setup Time:                      6089516590.000000ns
   Simulation Time:                 79931318077.000000ns
   System Clock:                    1.000000GHz
   Transistor Latency:              0ns
   Runtime:                         10932 cycles
   Runtime:                         0.000001 seconds
   Stalls:                          1 cycles
       Load Only:                   0 cycles
       Store Only:                  1 cycles
       Compute Only:                0 cycles
       Compute & Store:             0 cycles
       Load & Store:                0 cycles
       Load & Compute:              0 cycles
       Load & Compute & Store:      0 cycles
   Executed Nodes:                  10930 cycles
       Load Only:                   0 cycles
       Store Only:                  4 cycles
       Compute Only:                1 cycles
       Compute & Store:             21 cycles
       Load & Store:                0 cycles
       Load & Compute:              6 cycles
       Load & Compute & Store:      10898 cycles

   ========= Runtime FU's ========= (Max | Avg) ===
   Counter FU's:                      32 | 0.046838
   Integer Add/Sub FU's:               0 | 0.000000
   Integer Mul/Div FU's:               0 | 0.000000
   Integer Shifter FU's:               0 | 0.000000
   Integer Bitwise FU's:               1 | 0.000091
   Floating Point Float Add/Sub:       0 | 0.000000
   Floating Point Double Add/Sub:      0 | 0.000000
   Floating Point Float Mul/Div:      34 | 0.044252
   Floating Point Double Mul/Div:      0 | 0.000000
   0 Cycle Compare FU's:             102 | 0.046945
   GEP Instruction FU's:              96 | 0.046835
   Type Conversion FU's:               7 | 0.006782

   ========= Static FU's ==========================
   Counter FU's:                    0
   Integer Add/Sub FU's:            0
   Integer Mul/Div FU's:            0
   Integer Shifter FU's:            0
   Integer Bitwise FU's:            0
   Floating Point Float Add/Sub:    0
   Floating Point Double Add/Sub:   0
   Floating Point Float Mul/Div:    0
   Floating Point Double Mul/Div:   0
   0 Cycle Compare FU's:            0
   GEP Instruction FU's:            0
   Type Conversion FU's:            0
   Other:                           0

   ========= Pipeline Register Usage =============
   Total Number of Registers:       5641
   Max Register Usage Per Cycle:    137
   Avg Register Usage Per Cycle:    12.130992
   Avg Register Size (Bytes):       5.980606

   ========= Memory Configuration =================
   Cache Bus Ports:                 0
   Shared Cache Size:               0kB
   Local Bus Ports:                 0
   Private SPM Size:                256kB
   Private Read Ports:              0
   Private Write Ports:             0
   Private Read Bus Width:          64
   Private Write Bus Width:         64
       Memory Reads:                0
       Memory Writes:               0
   ========= Power Analysis ======================
   FU Leakage Power:                0.045377 mW 
   FU Dynamic Power:                0.142576 mW 
   FU Total Power:                  0.187953 mW 

   Registers Leakage Power:          0.005281 mW 
   Registers Dynamic Power:          0.015326 mW 
       Register Reads (Bits):        132616
       Register Writes (Bits):       133658
   Registers Total Power:            0.020607 mW

   SPM Leakage Power:               0.104100 mW
   SPM Read Dynamic Power:          1.997266 mW
   SPM Write Dynamic Power:         0.953321 mW
   SPM Total Power:                 3.054688 mW

   Cache Leakage Power:             0.000000 mW
   Cache Read Dynamic Power:        0.000000 mW
   Cache Write Dynamic Power:       0.000000 mW
   Cache Total Power:               0.000000 mW

   Accelerator Power:               0.208559 mW
   Accelerator Power (SPM):         3.263247 mW
   Accelerator Power (Cache):       0.208559 mW

   ========= Area Analysis =======================
   FU Area:                         5472.068359 um^2 (0.005472 mm^2)
   Register Area:                   429.271088 um^2 (0.000429 mm^2)
   SPM Area:                        2177.365505 um^2 (0.002177 mm^2)
   Cache Area:                      0.000000 um^2 (0.000000 mm^2)

   Accelerator Area:                5901.339355 um^2 (0.005901 mm^2)
   Accelerator Area (SPM):          8078.704860 um^2 (0.008079 mm^2)
   Accelerator Area (Cache):        5901.339355 um^2 (0.005901 mm^2)

   ========= SPM Resizing  =======================
   SPM Optimized Leakage Power:     0.004248 mW
   SPM Opt Area:                    178.524902 um^2

3651542500: global: Timer #0 stopped at tick 3651542500. Duration: 1373125
3651556875: global: Number of accelerators running = 2
3651672500: global: Timer #0 started at tick 3651672500
3651849375: global: Timer #2 started at tick 3651849375
3651886250: global: Timer #2 stopped at tick 3651886250. Duration: 36875
3652231250: global: DAG ID = 0
3652245000: global: Node ID = 5
3652258125: global: Node deadline difference = -2234
3652270625: global: Predicted memory time / byte = 0 us/byte
3652283125: global: Predicted memory time = 0 us
3652295625: global: Predicted memory time / byte = 0 us/byte
3652308125: global: Predicted memory time = 0 us
3652320625: global: Predicted memory time / byte = 0 us/byte
3652333125: global: Predicted memory time = 0 us
3652345625: global: Predicted memory time / byte = 0 us/byte
3652358125: global: Predicted memory time = 0 us
********************************************************************************
system.acctest.elem_matrix0.compute
   ========= Performance Analysis =============
   Setup Time:                      6.592199seconds
   Simulation Time:                 85.439183seconds
   System Clock:                    1.000000GHz
   Transistor Latency:              1ns
   Runtime:                         10932 cycles
   Runtime:                         10.932000 us
   Stalls:                          0 cycles
   Executed Nodes:                  10931 cycles

********************************************************************************
   ========= Performance Analysis =================
   Setup Time:                      6592199035.000000ns
   Simulation Time:                 85439182844.000000ns
   System Clock:                    1.000000GHz
   Transistor Latency:              0ns
   Runtime:                         10932 cycles
   Runtime:                         0.000001 seconds
   Stalls:                          0 cycles
       Load Only:                   0 cycles
       Store Only:                  0 cycles
       Compute Only:                0 cycles
       Compute & Store:             0 cycles
       Load & Store:                0 cycles
       Load & Compute:              0 cycles
       Load & Compute & Store:      0 cycles
   Executed Nodes:                  10931 cycles
       Load Only:                   0 cycles
       Store Only:                  5 cycles
       Compute Only:                1 cycles
       Compute & Store:             21 cycles
       Load & Store:                0 cycles
       Load & Compute:              7 cycles
       Load & Compute & Store:      10897 cycles

   ========= Runtime FU's ========= (Max | Avg) ===
   Counter FU's:                      32 | 0.046838
   Integer Add/Sub FU's:               0 | 0.000000
   Integer Mul/Div FU's:               0 | 0.000000
   Integer Shifter FU's:               0 | 0.000000
   Integer Bitwise FU's:               1 | 0.000091
   Floating Point Float Add/Sub:      34 | 0.044252
   Floating Point Double Add/Sub:      0 | 0.000000
   Floating Point Float Mul/Div:       0 | 0.000000
   Floating Point Double Mul/Div:      0 | 0.000000
   0 Cycle Compare FU's:             102 | 0.046974
   GEP Instruction FU's:              96 | 0.046835
   Type Conversion FU's:               7 | 0.006782

   ========= Static FU's ==========================
   Counter FU's:                    0
   Integer Add/Sub FU's:            0
   Integer Mul/Div FU's:            0
   Integer Shifter FU's:            0
   Integer Bitwise FU's:            0
   Floating Point Float Add/Sub:    0
   Floating Point Double Add/Sub:   0
   Floating Point Float Mul/Div:    0
   Floating Point Double Mul/Div:   0
   0 Cycle Compare FU's:            0
   GEP Instruction FU's:            0
   Type Conversion FU's:            0
   Other:                           0

   ========= Pipeline Register Usage =============
   Total Number of Registers:       5641
   Max Register Usage Per Cycle:    138
   Avg Register Usage Per Cycle:    12.130992
   Avg Register Size (Bytes):       5.980606

   ========= Memory Configuration =================
   Cache Bus Ports:                 0
   Shared Cache Size:               0kB
   Local Bus Ports:                 0
   Private SPM Size:                256kB
   Private Read Ports:              0
   Private Write Ports:             0
   Private Read Bus Width:          64
   Private Write Bus Width:         64
       Memory Reads:                0
       Memory Writes:               0
   ========= Power Analysis ======================
   FU Leakage Power:                0.519269 mW 
   FU Dynamic Power:                0.154621 mW 
   FU Total Power:                  0.673890 mW 

   Registers Leakage Power:          0.005281 mW 
   Registers Dynamic Power:          0.015326 mW 
       Register Reads (Bits):        132616
       Register Writes (Bits):       133658
   Registers Total Power:            0.020607 mW

   SPM Leakage Power:               0.104100 mW
   SPM Read Dynamic Power:          3.776796 mW
   SPM Write Dynamic Power:         2.457440 mW
   SPM Total Power:                 6.338336 mW

   Cache Leakage Power:             0.000000 mW
   Cache Read Dynamic Power:        0.000000 mW
   Cache Write Dynamic Power:       0.000000 mW
   Cache Total Power:               0.000000 mW

   Accelerator Power:               0.694497 mW
   Accelerator Power (SPM):         7.032833 mW
   Accelerator Power (Cache):       0.694497 mW

   ========= Area Analysis =======================
   FU Area:                         70212.562500 um^2 (0.070213 mm^2)
   Register Area:                   429.271088 um^2 (0.000429 mm^2)
   SPM Area:                        2177.365505 um^2 (0.002177 mm^2)
   Cache Area:                      0.000000 um^2 (0.000000 mm^2)

   Accelerator Area:                70641.835938 um^2 (0.070642 mm^2)
   Accelerator Area (SPM):          72819.201442 um^2 (0.072819 mm^2)
   Accelerator Area (Cache):        70641.835938 um^2 (0.070642 mm^2)

   ========= SPM Resizing  =======================
   SPM Optimized Leakage Power:     0.004248 mW
   SPM Opt Area:                    178.524902 um^2

3665751625: system.acctest.elem_matrix1_dma: SRC:0x0000000082048780, DST:0x0000000024100020, LEN:65536
3665968125: global: Timer #0 stopped at tick 3665968125. Duration: 14295625
3665981250: global: Number of accelerators running = 2
3666097500: global: Timer #0 started at tick 3666097500
3666343125: global: Timer #2 started at tick 3666343125
3666375000: global: Timer #2 stopped at tick 3666375000. Duration: 31875
3666685000: global: DAG ID = 0
3666698750: global: Node ID = 2
3666711875: global: Node deadline difference = -2545
3666724375: global: Predicted memory time / byte = 0 us/byte
3666736875: global: Predicted memory time = 0 us
3666749375: global: Predicted memory time / byte = 0 us/byte
3666761875: global: Predicted memory time = 0 us
3666774375: global: Predicted memory time / byte = 0 us/byte
3666786875: global: Predicted memory time = 0 us
3666799375: global: Predicted memory time / byte = 0 us/byte
3666811875: global: Predicted memory time = 0 us
3668276250: global: Timer #0 stopped at tick 3668276250. Duration: 2178750
3668289375: global: Number of accelerators running = 2
********************************************************************************
system.acctest.elem_matrix0.compute
   ========= Performance Analysis =============
   Setup Time:                      6.670396seconds
   Simulation Time:                 65.740015seconds
   System Clock:                    1.000000GHz
   Transistor Latency:              1ns
   Runtime:                         8316 cycles
   Runtime:                         8.316000 us
   Stalls:                          82 cycles
   Executed Nodes:                  8233 cycles

********************************************************************************
   ========= Performance Analysis =================
   Setup Time:                      6670396176.000000ns
   Simulation Time:                 65740014710.000000ns
   System Clock:                    1.000000GHz
   Transistor Latency:              0ns
   Runtime:                         8316 cycles
   Runtime:                         0.000001 seconds
   Stalls:                          82 cycles
       Load Only:                   0 cycles
       Store Only:                  77 cycles
       Compute Only:                0 cycles
       Compute & Store:             5 cycles
       Load & Store:                0 cycles
       Load & Compute:              0 cycles
       Load & Compute & Store:      0 cycles
   Executed Nodes:                  8233 cycles
       Load Only:                   0 cycles
       Store Only:                  11 cycles
       Compute Only:                1827 cycles
       Compute & Store:             3453 cycles
       Load & Store:                0 cycles
       Load & Compute:              774 cycles
       Load & Compute & Store:      2168 cycles

   ========= Runtime FU's ========= (Max | Avg) ===
   Counter FU's:                      32 | 0.061572
   Integer Add/Sub FU's:               0 | 0.000000
   Integer Mul/Div FU's:               0 | 0.000000
   Integer Shifter FU's:               0 | 0.000000
   Integer Bitwise FU's:               1 | 0.000120
   Floating Point Float Add/Sub:      80 | 0.302014
   Floating Point Double Add/Sub:      0 | 0.000000
   Floating Point Float Mul/Div:      35 | 0.056511
   Floating Point Double Mul/Div:      0 | 0.000000
   0 Cycle Compare FU's:              15 | 0.024828
   GEP Instruction FU's:              64 | 0.061568
   Type Conversion FU's:              66 | 0.120964

   ========= Static FU's ==========================
   Counter FU's:                    0
   Integer Add/Sub FU's:            0
   Integer Mul/Div FU's:            0
   Integer Shifter FU's:            0
   Integer Bitwise FU's:            0
   Floating Point Float Add/Sub:    0
   Floating Point Double Add/Sub:   0
   Floating Point Float Mul/Div:    0
   Floating Point Double Mul/Div:   0
   0 Cycle Compare FU's:            0
   GEP Instruction FU's:            0
   Type Conversion FU's:            0
   Other:                           0

   ========= Pipeline Register Usage =============
   Total Number of Registers:       5641
   Max Register Usage Per Cycle:    126
   Avg Register Usage Per Cycle:    27.706590
   Avg Register Size (Bytes):       5.993295

   ========= Memory Configuration =================
   Cache Bus Ports:                 0
   Shared Cache Size:               0kB
   Local Bus Ports:                 0
   Private SPM Size:                256kB
   Private Read Ports:              0
   Private Write Ports:             0
   Private Read Bus Width:          64
   Private Write Bus Width:         64
       Memory Reads:                0
       Memory Writes:               0
   ========= Power Analysis ======================
   FU Leakage Power:                1.265749 mW 
   FU Dynamic Power:                1.166708 mW 
   FU Total Power:                  2.432457 mW 

   Registers Leakage Power:          0.011908 mW 
   Registers Dynamic Power:          0.045645 mW 
       Register Reads (Bits):        230408
       Register Writes (Bits):       231961
   Registers Total Power:            0.057553 mW

   SPM Leakage Power:               0.104100 mW
   SPM Read Dynamic Power:          4.599549 mW
   SPM Write Dynamic Power:         2.880682 mW
   SPM Total Power:                 7.584331 mW

   Cache Leakage Power:             0.000000 mW
   Cache Read Dynamic Power:        0.000000 mW
   Cache Write Dynamic Power:       0.000000 mW
   Cache Total Power:               0.000000 mW

   Accelerator Power:               2.490010 mW
   Accelerator Power (SPM):         10.074342 mW
   Accelerator Power (Cache):       2.490010 mW

   ========= Area Analysis =======================
   FU Area:                         170559.593750 um^2 (0.170560 mm^2)
   Register Area:                   967.909180 um^2 (0.000968 mm^2)
   SPM Area:                        2177.365505 um^2 (0.002177 mm^2)
   Cache Area:                      0.000000 um^2 (0.000000 mm^2)

   Accelerator Area:                171527.500000 um^2 (0.171527 mm^2)
   Accelerator Area (SPM):          173704.865505 um^2 (0.173705 mm^2)
   Accelerator Area (Cache):        171527.500000 um^2 (0.171527 mm^2)

   ========= SPM Resizing  =======================
   SPM Optimized Leakage Power:     0.003887 mW
   SPM Opt Area:                    172.850411 um^2

3676403125: global: Timer #0 started at tick 3676403125
3676573750: global: Timer #2 started at tick 3676573750
3676698125: global: Timer #2 stopped at tick 3676698125. Duration: 124375
3677732625: system.acctest.elem_matrix1_dma: Transfer completed in 11.981 us
3690210875: system.acctest.elem_matrix0_dma: SRC:0x0000000024000020, DST:0x00000000820b8780, LEN:65536
3696960875: system.acctest.elem_matrix0_dma: Transfer completed in 6.75 us
3704548750: system.acctest.elem_matrix2_dma: SRC:0x0000000082178940, DST:0x0000000024200020, LEN:65536
3704775000: global: Timer #0 stopped at tick 3704775000. Duration: 28371875
3704789375: global: Number of accelerators running = 3
3704904375: global: Timer #0 started at tick 3704904375
3706287500: global: Timer #0 stopped at tick 3706287500. Duration: 1383125
3706301875: global: Number of accelerators running = 3
3706417500: global: Timer #0 started at tick 3706417500
3706650000: global: DAG ID = 0
3706669375: global: Node ID = 3
3706738125: global: Node deadline difference = -6802
3706756250: global: Predicted memory time / byte = 0 us/byte
3706774375: global: Predicted memory time = 0 us
3706792500: global: Predicted memory time / byte = 0 us/byte
3706810625: global: Predicted memory time = 0 us
3706828750: global: Predicted memory time / byte = 0 us/byte
3706846875: global: Predicted memory time = 0 us
3706865000: global: Predicted memory time / byte = 0 us/byte
3706883125: global: Predicted memory time = 0 us
3707001875: global: Timer #0 stopped at tick 3707001875. Duration: 584375
3707016250: global: Number of accelerators running = 2
3716534750: system.acctest.elem_matrix2_dma: Transfer completed in 11.986 us
3716625625: global: Timer #0 started at tick 3716625625
********************************************************************************
system.acctest.elem_matrix1.compute
   ========= Performance Analysis =============
   Setup Time:                      6.387878seconds
   Simulation Time:                 88.579880seconds
   System Clock:                    1.000000GHz
   Transistor Latency:              1ns
   Runtime:                         10932 cycles
   Runtime:                         10.932000 us
   Stalls:                          0 cycles
   Executed Nodes:                  10931 cycles

********************************************************************************
   ========= Performance Analysis =================
   Setup Time:                      6387878229.000000ns
   Simulation Time:                 88579880317.000000ns
   System Clock:                    1.000000GHz
   Transistor Latency:              0ns
   Runtime:                         10932 cycles
   Runtime:                         0.000001 seconds
   Stalls:                          0 cycles
       Load Only:                   0 cycles
       Store Only:                  0 cycles
       Compute Only:                0 cycles
       Compute & Store:             0 cycles
       Load & Store:                0 cycles
       Load & Compute:              0 cycles
       Load & Compute & Store:      0 cycles
   Executed Nodes:                  10931 cycles
       Load Only:                   0 cycles
       Store Only:                  5 cycles
       Compute Only:                1 cycles
       Compute & Store:             21 cycles
       Load & Store:                0 cycles
       Load & Compute:              7 cycles
       Load & Compute & Store:      10897 cycles

   ========= Runtime FU's ========= (Max | Avg) ===
   Counter FU's:                      32 | 0.046838
   Integer Add/Sub FU's:               0 | 0.000000
   Integer Mul/Div FU's:               0 | 0.000000
   Integer Shifter FU's:               0 | 0.000000
   Integer Bitwise FU's:               1 | 0.000091
   Floating Point Float Add/Sub:      34 | 0.044252
   Floating Point Double Add/Sub:      0 | 0.000000
   Floating Point Float Mul/Div:       0 | 0.000000
   Floating Point Double Mul/Div:      0 | 0.000000
   0 Cycle Compare FU's:             102 | 0.046974
   GEP Instruction FU's:              96 | 0.046835
   Type Conversion FU's:               7 | 0.006782

   ========= Static FU's ==========================
   Counter FU's:                    0
   Integer Add/Sub FU's:            0
   Integer Mul/Div FU's:            0
   Integer Shifter FU's:            0
   Integer Bitwise FU's:            0
   Floating Point Float Add/Sub:    0
   Floating Point Double Add/Sub:   0
   Floating Point Float Mul/Div:    0
   Floating Point Double Mul/Div:   0
   0 Cycle Compare FU's:            0
   GEP Instruction FU's:            0
   Type Conversion FU's:            0
   Other:                           0

   ========= Pipeline Register Usage =============
   Total Number of Registers:       5641
   Max Register Usage Per Cycle:    138
   Avg Register Usage Per Cycle:    12.130992
   Avg Register Size (Bytes):       5.980606

   ========= Memory Configuration =================
   Cache Bus Ports:                 0
   Shared Cache Size:               0kB
   Local Bus Ports:                 0
   Private SPM Size:                256kB
   Private Read Ports:              0
   Private Write Ports:             0
   Private Read Bus Width:          64
   Private Write Bus Width:         64
       Memory Reads:                0
       Memory Writes:               0
   ========= Power Analysis ======================
   FU Leakage Power:                0.519269 mW 
   FU Dynamic Power:                0.154621 mW 
   FU Total Power:                  0.673890 mW 

   Registers Leakage Power:          0.005281 mW 
   Registers Dynamic Power:          0.015326 mW 
       Register Reads (Bits):        132616
       Register Writes (Bits):       133658
   Registers Total Power:            0.020607 mW

   SPM Leakage Power:               0.104100 mW
   SPM Read Dynamic Power:          2.785289 mW
   SPM Write Dynamic Power:         2.044305 mW
   SPM Total Power:                 4.933694 mW

   Cache Leakage Power:             0.000000 mW
   Cache Read Dynamic Power:        0.000000 mW
   Cache Write Dynamic Power:       0.000000 mW
   Cache Total Power:               0.000000 mW

   Accelerator Power:               0.694497 mW
   Accelerator Power (SPM):         5.628191 mW
   Accelerator Power (Cache):       0.694497 mW

   ========= Area Analysis =======================
   FU Area:                         70212.562500 um^2 (0.070213 mm^2)
   Register Area:                   429.271088 um^2 (0.000429 mm^2)
   SPM Area:                        2177.365505 um^2 (0.002177 mm^2)
   Cache Area:                      0.000000 um^2 (0.000000 mm^2)

   Accelerator Area:                70641.835938 um^2 (0.070642 mm^2)
   Accelerator Area (SPM):          72819.201442 um^2 (0.072819 mm^2)
   Accelerator Area (Cache):        70641.835938 um^2 (0.070642 mm^2)

   ========= SPM Resizing  =======================
   SPM Optimized Leakage Power:     0.004248 mW
   SPM Opt Area:                    178.524902 um^2

3717536625: system.acctest.elem_matrix2_dma: SRC:0x0000000024000020, DST:0x0000000024210020, LEN:65536
3717770000: global: Timer #0 stopped at tick 3717770000. Duration: 1144375
3717784375: global: Number of accelerators running = 2
3717907500: global: Timer #0 started at tick 3717907500
3718174375: global: Timer #2 started at tick 3718174375
3718218750: global: Timer #2 stopped at tick 3718218750. Duration: 44375
3718448125: global: DAG ID = 0
3718461875: global: Node ID = 6
3718475000: global: Node deadline difference = -2225
3718487500: global: Predicted memory time / byte = 0 us/byte
3718500000: global: Predicted memory time = 0 us
3718512500: global: Predicted memory time / byte = 0 us/byte
3718525000: global: Predicted memory time = 0 us
3718537500: global: Predicted memory time / byte = 0 us/byte
3718550000: global: Predicted memory time = 0 us
3718562500: global: Predicted memory time / byte = 0 us/byte
3718575000: global: Predicted memory time = 0 us
3719548000: system.acctest.elem_matrix0_dma: SRC:0x0000000024110020, DST:0x0000000024010020, LEN:65536
3719775625: global: Timer #0 stopped at tick 3719775625. Duration: 1868125
3719788750: global: Number of accelerators running = 2
3733589625: system.acctest.elem_matrix2_dma: Transfer completed in 16.053 us
3733673125: global: Timer #0 started at tick 3733673125
3735220000: global: Timer #0 stopped at tick 3735220000. Duration: 1546875
3735234375: global: Number of accelerators running = 2
3735621000: system.acctest.elem_matrix0_dma: Transfer completed in 16.073 us
3735708750: global: Timer #0 started at tick 3735708750
3737091875: global: Timer #0 stopped at tick 3737091875. Duration: 1383125
3737106250: global: Number of accelerators running = 2
********************************************************************************
system.acctest.elem_matrix0.compute
   ========= Performance Analysis =============
   Setup Time:                      3.624803seconds
   Simulation Time:                 164.000068seconds
   System Clock:                    1.000000GHz
   Transistor Latency:              1ns
   Runtime:                         8316 cycles
   Runtime:                         8.316000 us
   Stalls:                          82 cycles
   Executed Nodes:                  8233 cycles

********************************************************************************
   ========= Performance Analysis =================
   Setup Time:                      3624802961.000000ns
   Simulation Time:                 164000067977.000000ns
   System Clock:                    1.000000GHz
   Transistor Latency:              0ns
   Runtime:                         8316 cycles
   Runtime:                         0.000001 seconds
   Stalls:                          82 cycles
       Load Only:                   0 cycles
       Store Only:                  77 cycles
       Compute Only:                0 cycles
       Compute & Store:             5 cycles
       Load & Store:                0 cycles
       Load & Compute:              0 cycles
       Load & Compute & Store:      0 cycles
   Executed Nodes:                  8233 cycles
       Load Only:                   0 cycles
       Store Only:                  11 cycles
       Compute Only:                1827 cycles
       Compute & Store:             3453 cycles
       Load & Store:                0 cycles
       Load & Compute:              774 cycles
       Load & Compute & Store:      2168 cycles

   ========= Runtime FU's ========= (Max | Avg) ===
   Counter FU's:                      32 | 0.061572
   Integer Add/Sub FU's:               0 | 0.000000
   Integer Mul/Div FU's:               0 | 0.000000
   Integer Shifter FU's:               0 | 0.000000
   Integer Bitwise FU's:               1 | 0.000120
   Floating Point Float Add/Sub:      80 | 0.302014
   Floating Point Double Add/Sub:      0 | 0.000000
   Floating Point Float Mul/Div:      35 | 0.056511
   Floating Point Double Mul/Div:      0 | 0.000000
   0 Cycle Compare FU's:              15 | 0.024828
   GEP Instruction FU's:              64 | 0.061568
   Type Conversion FU's:              66 | 0.120964

   ========= Static FU's ==========================
   Counter FU's:                    0
   Integer Add/Sub FU's:            0
   Integer Mul/Div FU's:            0
   Integer Shifter FU's:            0
   Integer Bitwise FU's:            0
   Floating Point Float Add/Sub:    0
   Floating Point Double Add/Sub:   0
   Floating Point Float Mul/Div:    0
   Floating Point Double Mul/Div:   0
   0 Cycle Compare FU's:            0
   GEP Instruction FU's:            0
   Type Conversion FU's:            0
   Other:                           0

   ========= Pipeline Register Usage =============
   Total Number of Registers:       5641
   Max Register Usage Per Cycle:    126
   Avg Register Usage Per Cycle:    27.706590
   Avg Register Size (Bytes):       5.993295

   ========= Memory Configuration =================
   Cache Bus Ports:                 0
   Shared Cache Size:               0kB
   Local Bus Ports:                 0
   Private SPM Size:                256kB
   Private Read Ports:              0
   Private Write Ports:             0
   Private Read Bus Width:          64
   Private Write Bus Width:         64
       Memory Reads:                0
       Memory Writes:               0
   ========= Power Analysis ======================
   FU Leakage Power:                1.265749 mW 
   FU Dynamic Power:                1.166708 mW 
   FU Total Power:                  2.432457 mW 

   Registers Leakage Power:          0.011908 mW 
   Registers Dynamic Power:          0.045645 mW 
       Register Reads (Bits):        230408
       Register Writes (Bits):       231961
   Registers Total Power:            0.057553 mW

   SPM Leakage Power:               0.104100 mW
   SPM Read Dynamic Power:          4.579344 mW
   SPM Write Dynamic Power:         3.448926 mW
   SPM Total Power:                 8.132371 mW

   Cache Leakage Power:             0.000000 mW
   Cache Read Dynamic Power:        0.000000 mW
   Cache Write Dynamic Power:       0.000000 mW
   Cache Total Power:               0.000000 mW

   Accelerator Power:               2.490010 mW
   Accelerator Power (SPM):         10.622381 mW
   Accelerator Power (Cache):       2.490010 mW

   ========= Area Analysis =======================
   FU Area:                         170559.593750 um^2 (0.170560 mm^2)
   Register Area:                   967.909180 um^2 (0.000968 mm^2)
   SPM Area:                        2177.365505 um^2 (0.002177 mm^2)
   Cache Area:                      0.000000 um^2 (0.000000 mm^2)

   Accelerator Area:                171527.500000 um^2 (0.171527 mm^2)
   Accelerator Area (SPM):          173704.865505 um^2 (0.173705 mm^2)
   Accelerator Area (Cache):        171527.500000 um^2 (0.171527 mm^2)

   ========= SPM Resizing  =======================
   SPM Optimized Leakage Power:     0.003887 mW
   SPM Opt Area:                    172.850411 um^2

3745259375: global: Timer #0 started at tick 3745259375
3745520000: global: Timer #2 started at tick 3745520000
3745556875: global: Timer #2 stopped at tick 3745556875. Duration: 36875
********************************************************************************
system.acctest.elem_matrix2.compute
   ========= Performance Analysis =============
   Setup Time:                      6.334515seconds
   Simulation Time:                 193.983630seconds
   System Clock:                    1.000000GHz
   Transistor Latency:              1ns
   Runtime:                         10936 cycles
   Runtime:                         10.936000 us
   Stalls:                          0 cycles
   Executed Nodes:                  10935 cycles

********************************************************************************
   ========= Performance Analysis =================
   Setup Time:                      6334514999.000000ns
   Simulation Time:                 193983629647.000000ns
   System Clock:                    1.000000GHz
   Transistor Latency:              0ns
   Runtime:                         10936 cycles
   Runtime:                         0.000001 seconds
   Stalls:                          0 cycles
       Load Only:                   0 cycles
       Store Only:                  0 cycles
       Compute Only:                0 cycles
       Compute & Store:             0 cycles
       Load & Store:                0 cycles
       Load & Compute:              0 cycles
       Load & Compute & Store:      0 cycles
   Executed Nodes:                  10935 cycles
       Load Only:                   0 cycles
       Store Only:                  4 cycles
       Compute Only:                1 cycles
       Compute & Store:             26 cycles
       Load & Store:                0 cycles
       Load & Compute:              11 cycles
       Load & Compute & Store:      10893 cycles

   ========= Runtime FU's ========= (Max | Avg) ===
   Counter FU's:                      32 | 0.046821
   Integer Add/Sub FU's:               0 | 0.000000
   Integer Mul/Div FU's:               0 | 0.000000
   Integer Shifter FU's:               0 | 0.000000
   Integer Bitwise FU's:               1 | 0.000091
   Floating Point Float Add/Sub:       2 | 0.749086
   Floating Point Double Add/Sub:      0 | 0.000000
   Floating Point Float Mul/Div:      39 | 0.124245
   Floating Point Double Mul/Div:      0 | 0.000000
   0 Cycle Compare FU's:             102 | 0.046899
   GEP Instruction FU's:              96 | 0.046818
   Type Conversion FU's:               7 | 0.006780

   ========= Static FU's ==========================
   Counter FU's:                    0
   Integer Add/Sub FU's:            0
   Integer Mul/Div FU's:            0
   Integer Shifter FU's:            0
   Integer Bitwise FU's:            0
   Floating Point Float Add/Sub:    0
   Floating Point Double Add/Sub:   0
   Floating Point Float Mul/Div:    0
   Floating Point Double Mul/Div:   0
   0 Cycle Compare FU's:            0
   GEP Instruction FU's:            0
   Type Conversion FU's:            0
   Other:                           0

   ========= Pipeline Register Usage =============
   Total Number of Registers:       5641
   Max Register Usage Per Cycle:    138
   Avg Register Usage Per Cycle:    13.624726
   Avg Register Size (Bytes):       5.762819

   ========= Memory Configuration =================
   Cache Bus Ports:                 0
   Shared Cache Size:               0kB
   Local Bus Ports:                 0
   Private SPM Size:                256kB
   Private Read Ports:              0
   Private Write Ports:             0
   Private Read Bus Width:          64
   Private Write Bus Width:         64
       Memory Reads:                0
       Memory Writes:               0
   ========= Power Analysis ======================
   FU Leakage Power:                0.075886 mW 
   FU Dynamic Power:                0.260138 mW 
   FU Total Power:                  0.336024 mW 

   Registers Leakage Power:          0.005513 mW 
   Registers Dynamic Power:          0.017973 mW 
       Register Reads (Bits):        149000
       Register Writes (Bits):       150042
   Registers Total Power:            0.023486 mW

   SPM Leakage Power:               0.104100 mW
   SPM Read Dynamic Power:          1.997266 mW
   SPM Write Dynamic Power:         0.953321 mW
   SPM Total Power:                 3.054688 mW

   Cache Leakage Power:             0.000000 mW
   Cache Read Dynamic Power:        0.000000 mW
   Cache Write Dynamic Power:       0.000000 mW
   Cache Total Power:               0.000000 mW

   Accelerator Power:               0.359510 mW
   Accelerator Power (SPM):         3.414198 mW
   Accelerator Power (Cache):       0.359510 mW

   ========= Area Analysis =======================
   FU Area:                         9599.255859 um^2 (0.009599 mm^2)
   Register Area:                   448.108887 um^2 (0.000448 mm^2)
   SPM Area:                        2177.365505 um^2 (0.002177 mm^2)
   Cache Area:                      0.000000 um^2 (0.000000 mm^2)

   Accelerator Area:                10047.365234 um^2 (0.010047 mm^2)
   Accelerator Area (SPM):          12224.730739 um^2 (0.012225 mm^2)
   Accelerator Area (Cache):        10047.365234 um^2 (0.010047 mm^2)

   ========= SPM Resizing  =======================
   SPM Optimized Leakage Power:     0.004248 mW
   SPM Opt Area:                    178.524902 um^2

3745850000: global: DAG ID = 0
3745863750: global: Node ID = 7
3745876875: global: Node deadline difference = -2237
3745889375: global: Predicted memory time / byte = 0 us/byte
3745901875: global: Predicted memory time = 0 us
3745914375: global: Predicted memory time / byte = 0 us/byte
3745926875: global: Predicted memory time = 0 us
3745939375: global: Predicted memory time / byte = 0 us/byte
3745951875: global: Predicted memory time = 0 us
3745964375: global: Predicted memory time / byte = 0 us/byte
3745976875: global: Predicted memory time = 0 us
3759361625: system.acctest.elem_matrix0_dma: SRC:0x0000000082178940, DST:0x0000000024000020, LEN:65536
3759584375: global: Timer #0 stopped at tick 3759584375. Duration: 14325000
3759597500: global: Number of accelerators running = 2
3759713125: global: Timer #0 started at tick 3759713125
3771359625: system.acctest.elem_matrix0_dma: Transfer completed in 11.998 us
3773305875: system.acctest.elem_matrix2_dma: SRC:0x0000000024220020, DST:0x00000000820c8780, LEN:65536
3773671250: global: Timer #0 stopped at tick 3773671250. Duration: 13958125
3773685625: global: Number of accelerators running = 2
3773800625: global: Timer #0 started at tick 3773800625
3775221875: global: Timer #0 stopped at tick 3775221875. Duration: 1421250
3775236250: global: Number of accelerators running = 2
3779597875: system.acctest.elem_matrix2_dma: Transfer completed in 6.292 us
3779681250: global: Timer #0 started at tick 3779681250
3779857500: global: DAG ID = 0
3779871250: global: Node ID = 4
3779890625: global: Node deadline difference = -6729
3779903125: global: Predicted memory time / byte = 0 us/byte
3779915625: global: Predicted memory time = 0 us
3779928125: global: Predicted memory time / byte = 0 us/byte
3779940625: global: Predicted memory time = 0 us
3779953125: global: Predicted memory time / byte = 0 us/byte
3779965625: global: Predicted memory time = 0 us
3779978125: global: Predicted memory time / byte = 0 us/byte
3779990625: global: Predicted memory time = 0 us
3780097500: global: Timer #0 stopped at tick 3780097500. Duration: 416250
3780111875: global: Number of accelerators running = 1
********************************************************************************
system.acctest.elem_matrix0.compute
   ========= Performance Analysis =============
   Setup Time:                      8.166339seconds
   Simulation Time:                 123.041312seconds
   System Clock:                    1.000000GHz
   Transistor Latency:              1ns
   Runtime:                         10932 cycles
   Runtime:                         10.932000 us
   Stalls:                          1 cycles
   Executed Nodes:                  10930 cycles

********************************************************************************
   ========= Performance Analysis =================
   Setup Time:                      8166339291.000000ns
   Simulation Time:                 123041311591.000000ns
   System Clock:                    1.000000GHz
   Transistor Latency:              0ns
   Runtime:                         10932 cycles
   Runtime:                         0.000001 seconds
   Stalls:                          1 cycles
       Load Only:                   0 cycles
       Store Only:                  1 cycles
       Compute Only:                0 cycles
       Compute & Store:             0 cycles
       Load & Store:                0 cycles
       Load & Compute:              0 cycles
       Load & Compute & Store:      0 cycles
   Executed Nodes:                  10930 cycles
       Load Only:                   0 cycles
       Store Only:                  4 cycles
       Compute Only:                1 cycles
       Compute & Store:             21 cycles
       Load & Store:                0 cycles
       Load & Compute:              6 cycles
       Load & Compute & Store:      10898 cycles

   ========= Runtime FU's ========= (Max | Avg) ===
   Counter FU's:                      32 | 0.046838
   Integer Add/Sub FU's:               0 | 0.000000
   Integer Mul/Div FU's:               0 | 0.000000
   Integer Shifter FU's:               0 | 0.000000
   Integer Bitwise FU's:               1 | 0.000091
   Floating Point Float Add/Sub:       0 | 0.000000
   Floating Point Double Add/Sub:      0 | 0.000000
   Floating Point Float Mul/Div:      34 | 0.044252
   Floating Point Double Mul/Div:      0 | 0.000000
   0 Cycle Compare FU's:             102 | 0.046945
   GEP Instruction FU's:              96 | 0.046835
   Type Conversion FU's:               7 | 0.006782

   ========= Static FU's ==========================
   Counter FU's:                    0
   Integer Add/Sub FU's:            0
   Integer Mul/Div FU's:            0
   Integer Shifter FU's:            0
   Integer Bitwise FU's:            0
   Floating Point Float Add/Sub:    0
   Floating Point Double Add/Sub:   0
   Floating Point Float Mul/Div:    0
   Floating Point Double Mul/Div:   0
   0 Cycle Compare FU's:            0
   GEP Instruction FU's:            0
   Type Conversion FU's:            0
   Other:                           0

   ========= Pipeline Register Usage =============
   Total Number of Registers:       5641
   Max Register Usage Per Cycle:    137
   Avg Register Usage Per Cycle:    12.130992
   Avg Register Size (Bytes):       5.980606

   ========= Memory Configuration =================
   Cache Bus Ports:                 0
   Shared Cache Size:               0kB
   Local Bus Ports:                 0
   Private SPM Size:                256kB
   Private Read Ports:              0
   Private Write Ports:             0
   Private Read Bus Width:          64
   Private Write Bus Width:         64
       Memory Reads:                0
       Memory Writes:               0
   ========= Power Analysis ======================
   FU Leakage Power:                0.045377 mW 
   FU Dynamic Power:                0.142576 mW 
   FU Total Power:                  0.187953 mW 

   Registers Leakage Power:          0.005281 mW 
   Registers Dynamic Power:          0.015326 mW 
       Register Reads (Bits):        132616
       Register Writes (Bits):       133658
   Registers Total Power:            0.020607 mW

   SPM Leakage Power:               0.104100 mW
   SPM Read Dynamic Power:          4.985201 mW
   SPM Write Dynamic Power:         3.846212 mW
   SPM Total Power:                 8.935514 mW

   Cache Leakage Power:             0.000000 mW
   Cache Read Dynamic Power:        0.000000 mW
   Cache Write Dynamic Power:       0.000000 mW
   Cache Total Power:               0.000000 mW

   Accelerator Power:               0.208559 mW
   Accelerator Power (SPM):         9.144073 mW
   Accelerator Power (Cache):       0.208559 mW

   ========= Area Analysis =======================
   FU Area:                         5472.068359 um^2 (0.005472 mm^2)
   Register Area:                   429.271088 um^2 (0.000429 mm^2)
   SPM Area:                        2177.365505 um^2 (0.002177 mm^2)
   Cache Area:                      0.000000 um^2 (0.000000 mm^2)

   Accelerator Area:                5901.339355 um^2 (0.005901 mm^2)
   Accelerator Area (SPM):          8078.704860 um^2 (0.008079 mm^2)
   Accelerator Area (Cache):        5901.339355 um^2 (0.005901 mm^2)

   ========= SPM Resizing  =======================
   SPM Optimized Leakage Power:     0.004248 mW
   SPM Opt Area:                    178.524902 um^2

3786008125: global: Timer #0 started at tick 3786008125
3786178750: global: Timer #2 started at tick 3786178750
3786294375: global: Timer #2 stopped at tick 3786294375. Duration: 115625
3786598750: global: DAG ID = 0
3786612500: global: Node ID = 8
3786625625: global: Node deadline difference = -2253
3786638125: global: Predicted memory time / byte = 0 us/byte
3786650625: global: Predicted memory time = 0 us
3786663125: global: Predicted memory time / byte = 0 us/byte
3786675625: global: Predicted memory time = 0 us
3786688125: global: Predicted memory time / byte = 0 us/byte
3786700625: global: Predicted memory time = 0 us
3786713125: global: Predicted memory time / byte = 0 us/byte
3786725625: global: Predicted memory time = 0 us
3800115875: system.acctest.elem_matrix0_dma: SRC:0x0000000082078780, DST:0x0000000024000020, LEN:65536
3800333125: global: Timer #0 stopped at tick 3800333125. Duration: 14325000
3800346250: global: Number of accelerators running = 1
3812061875: system.acctest.elem_matrix0_dma: Transfer completed in 11.946 us
3812136875: global: Timer #0 started at tick 3812136875
3813500000: global: Timer #0 stopped at tick 3813500000. Duration: 1363125
3813514375: global: Number of accelerators running = 1
********************************************************************************
system.acctest.elem_matrix0.compute
   ========= Performance Analysis =============
   Setup Time:                      6.808795seconds
   Simulation Time:                 93.237287seconds
   System Clock:                    1.000000GHz
   Transistor Latency:              1ns
   Runtime:                         10932 cycles
   Runtime:                         10.932000 us
   Stalls:                          0 cycles
   Executed Nodes:                  10931 cycles

********************************************************************************
   ========= Performance Analysis =================
   Setup Time:                      6808795140.000000ns
   Simulation Time:                 93237287225.000000ns
   System Clock:                    1.000000GHz
   Transistor Latency:              0ns
   Runtime:                         10932 cycles
   Runtime:                         0.000001 seconds
   Stalls:                          0 cycles
       Load Only:                   0 cycles
       Store Only:                  0 cycles
       Compute Only:                0 cycles
       Compute & Store:             0 cycles
       Load & Store:                0 cycles
       Load & Compute:              0 cycles
       Load & Compute & Store:      0 cycles
   Executed Nodes:                  10931 cycles
       Load Only:                   0 cycles
       Store Only:                  5 cycles
       Compute Only:                1 cycles
       Compute & Store:             21 cycles
       Load & Store:                0 cycles
       Load & Compute:              7 cycles
       Load & Compute & Store:      10897 cycles

   ========= Runtime FU's ========= (Max | Avg) ===
   Counter FU's:                      32 | 0.046838
   Integer Add/Sub FU's:               0 | 0.000000
   Integer Mul/Div FU's:               0 | 0.000000
   Integer Shifter FU's:               0 | 0.000000
   Integer Bitwise FU's:               1 | 0.000091
   Floating Point Float Add/Sub:      34 | 0.044252
   Floating Point Double Add/Sub:      0 | 0.000000
   Floating Point Float Mul/Div:       0 | 0.000000
   Floating Point Double Mul/Div:      0 | 0.000000
   0 Cycle Compare FU's:             102 | 0.046974
   GEP Instruction FU's:              96 | 0.046835
   Type Conversion FU's:               7 | 0.006782

   ========= Static FU's ==========================
   Counter FU's:                    0
   Integer Add/Sub FU's:            0
   Integer Mul/Div FU's:            0
   Integer Shifter FU's:            0
   Integer Bitwise FU's:            0
   Floating Point Float Add/Sub:    0
   Floating Point Double Add/Sub:   0
   Floating Point Float Mul/Div:    0
   Floating Point Double Mul/Div:   0
   0 Cycle Compare FU's:            0
   GEP Instruction FU's:            0
   Type Conversion FU's:            0
   Other:                           0

   ========= Pipeline Register Usage =============
   Total Number of Registers:       5641
   Max Register Usage Per Cycle:    138
   Avg Register Usage Per Cycle:    12.130992
   Avg Register Size (Bytes):       5.980606

   ========= Memory Configuration =================
   Cache Bus Ports:                 0
   Shared Cache Size:               0kB
   Local Bus Ports:                 0
   Private SPM Size:                256kB
   Private Read Ports:              0
   Private Write Ports:             0
   Private Read Bus Width:          64
   Private Write Bus Width:         64
       Memory Reads:                0
       Memory Writes:               0
   ========= Power Analysis ======================
   FU Leakage Power:                0.519269 mW 
   FU Dynamic Power:                0.154621 mW 
   FU Total Power:                  0.673890 mW 

   Registers Leakage Power:          0.005281 mW 
   Registers Dynamic Power:          0.015326 mW 
       Register Reads (Bits):        132616
       Register Writes (Bits):       133658
   Registers Total Power:            0.020607 mW

   SPM Leakage Power:               0.104100 mW
   SPM Read Dynamic Power:          5.394845 mW
   SPM Write Dynamic Power:         4.937352 mW
   SPM Total Power:                 10.436297 mW

   Cache Leakage Power:             0.000000 mW
   Cache Read Dynamic Power:        0.000000 mW
   Cache Write Dynamic Power:       0.000000 mW
   Cache Total Power:               0.000000 mW

   Accelerator Power:               0.694497 mW
   Accelerator Power (SPM):         11.130794 mW
   Accelerator Power (Cache):       0.694497 mW

   ========= Area Analysis =======================
   FU Area:                         70212.562500 um^2 (0.070213 mm^2)
   Register Area:                   429.271088 um^2 (0.000429 mm^2)
   SPM Area:                        2177.365505 um^2 (0.002177 mm^2)
   Cache Area:                      0.000000 um^2 (0.000000 mm^2)

   Accelerator Area:                70641.835938 um^2 (0.070642 mm^2)
   Accelerator Area (SPM):          72819.201442 um^2 (0.072819 mm^2)
   Accelerator Area (Cache):        70641.835938 um^2 (0.070642 mm^2)

   ========= SPM Resizing  =======================
   SPM Optimized Leakage Power:     0.004248 mW
   SPM Opt Area:                    178.524902 um^2

3824275625: global: Timer #0 started at tick 3824275625
3824518125: global: Timer #2 started at tick 3824518125
3824550000: global: Timer #2 stopped at tick 3824550000. Duration: 31875
3824840000: global: DAG ID = 0
3824853750: global: Node ID = 9
3824866875: global: Node deadline difference = -2272
3824879375: global: Predicted memory time / byte = 0 us/byte
3824891875: global: Predicted memory time = 0 us
3824904375: global: Predicted memory time / byte = 0 us/byte
3824916875: global: Predicted memory time = 0 us
3824929375: global: Predicted memory time / byte = 0 us/byte
3824941875: global: Predicted memory time = 0 us
3824954375: global: Predicted memory time / byte = 0 us/byte
3824966875: global: Predicted memory time = 0 us
3838345875: system.acctest.elem_matrix0_dma: SRC:0x0000000082058780, DST:0x0000000024000020, LEN:65536
3838563125: global: Timer #0 stopped at tick 3838563125. Duration: 14287500
3838576250: global: Number of accelerators running = 1
3850310875: system.acctest.elem_matrix0_dma: Transfer completed in 11.965 us
3850385625: global: Timer #0 started at tick 3850385625
3851790000: global: Timer #0 stopped at tick 3851790000. Duration: 1404375
3851804375: global: Number of accelerators running = 1
********************************************************************************
system.acctest.elem_matrix0.compute
   ========= Performance Analysis =============
   Setup Time:                      6.294309seconds
   Simulation Time:                 73.983835seconds
   System Clock:                    1.000000GHz
   Transistor Latency:              1ns
   Runtime:                         10932 cycles
   Runtime:                         10.932000 us
   Stalls:                          1 cycles
   Executed Nodes:                  10930 cycles

********************************************************************************
   ========= Performance Analysis =================
   Setup Time:                      6294308537.000000ns
   Simulation Time:                 73983834609.000000ns
   System Clock:                    1.000000GHz
   Transistor Latency:              0ns
   Runtime:                         10932 cycles
   Runtime:                         0.000001 seconds
   Stalls:                          1 cycles
       Load Only:                   0 cycles
       Store Only:                  1 cycles
       Compute Only:                0 cycles
       Compute & Store:             0 cycles
       Load & Store:                0 cycles
       Load & Compute:              0 cycles
       Load & Compute & Store:      0 cycles
   Executed Nodes:                  10930 cycles
       Load Only:                   0 cycles
       Store Only:                  4 cycles
       Compute Only:                1 cycles
       Compute & Store:             21 cycles
       Load & Store:                0 cycles
       Load & Compute:              6 cycles
       Load & Compute & Store:      10898 cycles

   ========= Runtime FU's ========= (Max | Avg) ===
   Counter FU's:                      32 | 0.046838
   Integer Add/Sub FU's:               0 | 0.000000
   Integer Mul/Div FU's:               0 | 0.000000
   Integer Shifter FU's:               0 | 0.000000
   Integer Bitwise FU's:               1 | 0.000091
   Floating Point Float Add/Sub:       0 | 0.000000
   Floating Point Double Add/Sub:      0 | 0.000000
   Floating Point Float Mul/Div:      34 | 0.044252
   Floating Point Double Mul/Div:      0 | 0.000000
   0 Cycle Compare FU's:             102 | 0.046945
   GEP Instruction FU's:              96 | 0.046835
   Type Conversion FU's:               7 | 0.006782

   ========= Static FU's ==========================
   Counter FU's:                    0
   Integer Add/Sub FU's:            0
   Integer Mul/Div FU's:            0
   Integer Shifter FU's:            0
   Integer Bitwise FU's:            0
   Floating Point Float Add/Sub:    0
   Floating Point Double Add/Sub:   0
   Floating Point Float Mul/Div:    0
   Floating Point Double Mul/Div:   0
   0 Cycle Compare FU's:            0
   GEP Instruction FU's:            0
   Type Conversion FU's:            0
   Other:                           0

   ========= Pipeline Register Usage =============
   Total Number of Registers:       5641
   Max Register Usage Per Cycle:    137
   Avg Register Usage Per Cycle:    12.130992
   Avg Register Size (Bytes):       5.980606

   ========= Memory Configuration =================
   Cache Bus Ports:                 0
   Shared Cache Size:               0kB
   Local Bus Ports:                 0
   Private SPM Size:                256kB
   Private Read Ports:              0
   Private Write Ports:             0
   Private Read Bus Width:          64
   Private Write Bus Width:         64
       Memory Reads:                0
       Memory Writes:               0
   ========= Power Analysis ======================
   FU Leakage Power:                0.045377 mW 
   FU Dynamic Power:                0.142576 mW 
   FU Total Power:                  0.187953 mW 

   Registers Leakage Power:          0.005281 mW 
   Registers Dynamic Power:          0.015326 mW 
       Register Reads (Bits):        132616
       Register Writes (Bits):       133658
   Registers Total Power:            0.020607 mW

   SPM Leakage Power:               0.104100 mW
   SPM Read Dynamic Power:          5.804542 mW
   SPM Write Dynamic Power:         4.673423 mW
   SPM Total Power:                 10.582065 mW

   Cache Leakage Power:             0.000000 mW
   Cache Read Dynamic Power:        0.000000 mW
   Cache Write Dynamic Power:       0.000000 mW
   Cache Total Power:               0.000000 mW

   Accelerator Power:               0.208559 mW
   Accelerator Power (SPM):         10.790625 mW
   Accelerator Power (Cache):       0.208559 mW

   ========= Area Analysis =======================
   FU Area:                         5472.068359 um^2 (0.005472 mm^2)
   Register Area:                   429.271088 um^2 (0.000429 mm^2)
   SPM Area:                        2177.365505 um^2 (0.002177 mm^2)
   Cache Area:                      0.000000 um^2 (0.000000 mm^2)

   Accelerator Area:                5901.339355 um^2 (0.005901 mm^2)
   Accelerator Area (SPM):          8078.704860 um^2 (0.008079 mm^2)
   Accelerator Area (Cache):        5901.339355 um^2 (0.005901 mm^2)

   ========= SPM Resizing  =======================
   SPM Optimized Leakage Power:     0.004248 mW
   SPM Opt Area:                    178.524902 um^2

3862525625: global: Timer #0 started at tick 3862525625
3862956250: global: Timer #2 started at tick 3862956250
3863057500: global: Timer #2 stopped at tick 3863057500. Duration: 101250
3863348125: global: DAG ID = 0
3863361875: global: Node ID = 10
3863375000: global: Node deadline difference = -2291
3863387500: global: Predicted memory time / byte = 0 us/byte
3863400000: global: Predicted memory time = 0 us
3863412500: global: Predicted memory time / byte = 0 us/byte
3863425000: global: Predicted memory time = 0 us
3863437500: global: Predicted memory time / byte = 0 us/byte
3863450000: global: Predicted memory time = 0 us
3863462500: global: Predicted memory time / byte = 0 us/byte
3863475000: global: Predicted memory time = 0 us
3876848750: system.acctest.elem_matrix0_dma: SRC:0x0000000082068780, DST:0x0000000024000020, LEN:65536
3877065000: global: Timer #0 stopped at tick 3877065000. Duration: 14539375
3877078125: global: Number of accelerators running = 1
3888839750: system.acctest.elem_matrix0_dma: Transfer completed in 11.991 us
3888914375: global: Timer #0 started at tick 3888914375
3890281250: global: Timer #0 stopped at tick 3890281250. Duration: 1366875
3890295625: global: Number of accelerators running = 1
********************************************************************************
system.acctest.elem_matrix0.compute
   ========= Performance Analysis =============
   Setup Time:                      6.099680seconds
   Simulation Time:                 74.178893seconds
   System Clock:                    1.000000GHz
   Transistor Latency:              1ns
   Runtime:                         10932 cycles
   Runtime:                         10.932000 us
   Stalls:                          0 cycles
   Executed Nodes:                  10931 cycles

********************************************************************************
   ========= Performance Analysis =================
   Setup Time:                      6099680426.000000ns
   Simulation Time:                 74178893161.000000ns
   System Clock:                    1.000000GHz
   Transistor Latency:              0ns
   Runtime:                         10932 cycles
   Runtime:                         0.000001 seconds
   Stalls:                          0 cycles
       Load Only:                   0 cycles
       Store Only:                  0 cycles
       Compute Only:                0 cycles
       Compute & Store:             0 cycles
       Load & Store:                0 cycles
       Load & Compute:              0 cycles
       Load & Compute & Store:      0 cycles
   Executed Nodes:                  10931 cycles
       Load Only:                   0 cycles
       Store Only:                  5 cycles
       Compute Only:                1 cycles
       Compute & Store:             21 cycles
       Load & Store:                0 cycles
       Load & Compute:              7 cycles
       Load & Compute & Store:      10897 cycles

   ========= Runtime FU's ========= (Max | Avg) ===
   Counter FU's:                      32 | 0.046838
   Integer Add/Sub FU's:               0 | 0.000000
   Integer Mul/Div FU's:               0 | 0.000000
   Integer Shifter FU's:               0 | 0.000000
   Integer Bitwise FU's:               1 | 0.000091
   Floating Point Float Add/Sub:      34 | 0.044252
   Floating Point Double Add/Sub:      0 | 0.000000
   Floating Point Float Mul/Div:       0 | 0.000000
   Floating Point Double Mul/Div:      0 | 0.000000
   0 Cycle Compare FU's:             102 | 0.046974
   GEP Instruction FU's:              96 | 0.046835
   Type Conversion FU's:               7 | 0.006782

   ========= Static FU's ==========================
   Counter FU's:                    0
   Integer Add/Sub FU's:            0
   Integer Mul/Div FU's:            0
   Integer Shifter FU's:            0
   Integer Bitwise FU's:            0
   Floating Point Float Add/Sub:    0
   Floating Point Double Add/Sub:   0
   Floating Point Float Mul/Div:    0
   Floating Point Double Mul/Div:   0
   0 Cycle Compare FU's:            0
   GEP Instruction FU's:            0
   Type Conversion FU's:            0
   Other:                           0

   ========= Pipeline Register Usage =============
   Total Number of Registers:       5641
   Max Register Usage Per Cycle:    138
   Avg Register Usage Per Cycle:    12.130992
   Avg Register Size (Bytes):       5.980606

   ========= Memory Configuration =================
   Cache Bus Ports:                 0
   Shared Cache Size:               0kB
   Local Bus Ports:                 0
   Private SPM Size:                256kB
   Private Read Ports:              0
   Private Write Ports:             0
   Private Read Bus Width:          64
   Private Write Bus Width:         64
       Memory Reads:                0
       Memory Writes:               0
   ========= Power Analysis ======================
   FU Leakage Power:                0.519269 mW 
   FU Dynamic Power:                0.154621 mW 
   FU Total Power:                  0.673890 mW 

   Registers Leakage Power:          0.005281 mW 
   Registers Dynamic Power:          0.015326 mW 
       Register Reads (Bits):        132616
       Register Writes (Bits):       133658
   Registers Total Power:            0.020607 mW

   SPM Leakage Power:               0.104100 mW
   SPM Read Dynamic Power:          6.227969 mW
   SPM Write Dynamic Power:         4.890273 mW
   SPM Total Power:                 11.222343 mW

   Cache Leakage Power:             0.000000 mW
   Cache Read Dynamic Power:        0.000000 mW
   Cache Write Dynamic Power:       0.000000 mW
   Cache Total Power:               0.000000 mW

   Accelerator Power:               0.694497 mW
   Accelerator Power (SPM):         11.916840 mW
   Accelerator Power (Cache):       0.694497 mW

   ========= Area Analysis =======================
   FU Area:                         70212.562500 um^2 (0.070213 mm^2)
   Register Area:                   429.271088 um^2 (0.000429 mm^2)
   SPM Area:                        2177.365505 um^2 (0.002177 mm^2)
   Cache Area:                      0.000000 um^2 (0.000000 mm^2)

   Accelerator Area:                70641.835938 um^2 (0.070642 mm^2)
   Accelerator Area (SPM):          72819.201442 um^2 (0.072819 mm^2)
   Accelerator Area (Cache):        70641.835938 um^2 (0.070642 mm^2)

[...]
7039931875: global: Predicted memory time = 0 us
7041303125: global: Timer #0 stopped at tick 7041303125. Duration: 2000625
7041316250: global: Number of accelerators running = 1
********************************************************************************
system.acctest.elem_matrix0.compute
   ========= Performance Analysis =============
   Setup Time:                      5.640584seconds
   Simulation Time:                 63.312634seconds
   System Clock:                    1.000000GHz
   Transistor Latency:              1ns
   Runtime:                         8344 cycles
   Runtime:                         8.344000 us
   Stalls:                          106 cycles
   Executed Nodes:                  8237 cycles

********************************************************************************
   ========= Performance Analysis =================
   Setup Time:                      5640584190.000000ns
   Simulation Time:                 63312633987.000000ns
   System Clock:                    1.000000GHz
   Transistor Latency:              0ns
   Runtime:                         8344 cycles
   Runtime:                         0.000001 seconds
   Stalls:                          106 cycles
       Load Only:                   0 cycles
       Store Only:                  101 cycles
       Compute Only:                0 cycles
       Compute & Store:             5 cycles
       Load & Store:                0 cycles
       Load & Compute:              0 cycles
       Load & Compute & Store:      0 cycles
   Executed Nodes:                  8237 cycles
       Load Only:                   0 cycles
       Store Only:                  11 cycles
       Compute Only:                2086 cycles
       Compute & Store:             3860 cycles
       Load & Store:                0 cycles
       Load & Compute:              519 cycles
       Load & Compute & Store:      1761 cycles

   ========= Runtime FU's ========= (Max | Avg) ===
   Counter FU's:                      32 | 0.061365
   Integer Add/Sub FU's:               0 | 0.000000
   Integer Mul/Div FU's:               0 | 0.000000
   Integer Shifter FU's:               0 | 0.000000
   Integer Bitwise FU's:               1 | 0.000120
   Floating Point Float Add/Sub:      76 | 0.476229
   Floating Point Double Add/Sub:      0 | 0.000000
   Floating Point Float Mul/Div:      53 | 0.193968
   Floating Point Double Mul/Div:      0 | 0.000000
   0 Cycle Compare FU's:              15 | 0.024744
   GEP Instruction FU's:              64 | 0.061361
   Type Conversion FU's:              60 | 0.132426

   ========= Static FU's ==========================
   Counter FU's:                    0
   Integer Add/Sub FU's:            0
   Integer Mul/Div FU's:            0
   Integer Shifter FU's:            0
   Integer Bitwise FU's:            0
   Floating Point Float Add/Sub:    0
   Floating Point Double Add/Sub:   0
   Floating Point Float Mul/Div:    0
   Floating Point Double Mul/Div:   0
   0 Cycle Compare FU's:            0
   GEP Instruction FU's:            0
   Type Conversion FU's:            0
   Other:                           0

   ========= Pipeline Register Usage =============
   Total Number of Registers:       5641
   Max Register Usage Per Cycle:    131
   Avg Register Usage Per Cycle:    31.540748
   Avg Register Size (Bytes):       5.745110

   ========= Memory Configuration =================
   Cache Bus Ports:                 0
   Shared Cache Size:               0kB
   Local Bus Ports:                 0
   Private SPM Size:                256kB
   Private Read Ports:              0
   Private Write Ports:             0
   Private Read Bus Width:          64
   Private Write Bus Width:         64
       Memory Reads:                0
       Memory Writes:               0
   ========= Power Analysis ======================
   FU Leakage Power:                1.204730 mW 
   FU Dynamic Power:                1.740443 mW 
   FU Total Power:                  2.945173 mW 

   Registers Leakage Power:          0.013106 mW 
   Registers Dynamic Power:          0.057551 mW 
       Register Reads (Bits):        263176
       Register Writes (Bits):       264729
   Registers Total Power:            0.070657 mW

   SPM Leakage Power:               0.104100 mW
   SPM Read Dynamic Power:          18.547242 mW
   SPM Write Dynamic Power:         13.935496 mW
   SPM Total Power:                 32.586838 mW

   Cache Leakage Power:             0.000000 mW
   Cache Read Dynamic Power:        0.000000 mW
   Cache Write Dynamic Power:       0.000000 mW
   Cache Total Power:               0.000000 mW

   Accelerator Power:               3.015830 mW
   Accelerator Power (SPM):         35.602668 mW
   Accelerator Power (Cache):       3.015830 mW

   ========= Area Analysis =======================
   FU Area:                         162305.218750 um^2 (0.162305 mm^2)
   Register Area:                   1065.283691 um^2 (0.001065 mm^2)
   SPM Area:                        2177.365505 um^2 (0.002177 mm^2)
   Cache Area:                      0.000000 um^2 (0.000000 mm^2)

   Accelerator Area:                163370.500000 um^2 (0.163371 mm^2)
   Accelerator Area (SPM):          165547.865505 um^2 (0.165548 mm^2)
   Accelerator Area (Cache):        163370.500000 um^2 (0.163371 mm^2)

   ========= SPM Resizing  =======================
   SPM Optimized Leakage Power:     0.004070 mW
   SPM Opt Area:                    175.836670 um^2

7049508750: global: Timer #0 started at tick 7049508750
7049678750: global: Timer #2 started at tick 7049678750
7049795000: global: Timer #2 stopped at tick 7049795000. Duration: 116250
7050031875: global: DAG ID = 0
7050045625: global: Node ID = 117
7050058750: global: Node deadline difference = -3344
7050071250: global: Predicted memory time / byte = 0 us/byte
7050083750: global: Predicted memory time = 0 us
7050096250: global: Predicted memory time / byte = 0 us/byte
7050108750: global: Predicted memory time = 0 us
7050121250: global: Predicted memory time / byte = 0 us/byte
7050133750: global: Predicted memory time = 0 us
7050146250: global: Predicted memory time / byte = 0 us/byte
7050158750: global: Predicted memory time = 0 us
7063500875: system.acctest.elem_matrix0_dma: SRC:0x00000000827d1e00, DST:0x0000000024010020, LEN:65536
7063715625: global: Timer #0 stopped at tick 7063715625. Duration: 14206875
7063728750: global: Number of accelerators running = 1
7075469875: system.acctest.elem_matrix0_dma: Transfer completed in 11.969 us
7075544375: global: Timer #0 started at tick 7075544375
7076891250: global: Timer #0 stopped at tick 7076891250. Duration: 1346875
7076905625: global: Number of accelerators running = 1
********************************************************************************
system.acctest.elem_matrix0.compute
   ========= Performance Analysis =============
   Setup Time:                      5.889540seconds
   Simulation Time:                 76.958810seconds
   System Clock:                    1.000000GHz
   Transistor Latency:              1ns
   Runtime:                         10932 cycles
   Runtime:                         10.932000 us
   Stalls:                          1 cycles
   Executed Nodes:                  10930 cycles

********************************************************************************
   ========= Performance Analysis =================
   Setup Time:                      5889540260.000000ns
   Simulation Time:                 76958809542.000000ns
   System Clock:                    1.000000GHz
   Transistor Latency:              0ns
   Runtime:                         10932 cycles
   Runtime:                         0.000001 seconds
   Stalls:                          1 cycles
       Load Only:                   0 cycles
       Store Only:                  1 cycles
       Compute Only:                0 cycles
       Compute & Store:             0 cycles
       Load & Store:                0 cycles
       Load & Compute:              0 cycles
       Load & Compute & Store:      0 cycles
   Executed Nodes:                  10930 cycles
       Load Only:                   0 cycles
       Store Only:                  4 cycles
       Compute Only:                1 cycles
       Compute & Store:             21 cycles
       Load & Store:                0 cycles
       Load & Compute:              6 cycles
       Load & Compute & Store:      10898 cycles

   ========= Runtime FU's ========= (Max | Avg) ===
   Counter FU's:                      32 | 0.046838
   Integer Add/Sub FU's:               0 | 0.000000
   Integer Mul/Div FU's:               0 | 0.000000
   Integer Shifter FU's:               0 | 0.000000
   Integer Bitwise FU's:               1 | 0.000091
   Floating Point Float Add/Sub:       0 | 0.000000
   Floating Point Double Add/Sub:      0 | 0.000000
   Floating Point Float Mul/Div:      34 | 0.044252
   Floating Point Double Mul/Div:      0 | 0.000000
   0 Cycle Compare FU's:             102 | 0.046945
   GEP Instruction FU's:              96 | 0.046835
   Type Conversion FU's:               7 | 0.006782

   ========= Static FU's ==========================
   Counter FU's:                    0
   Integer Add/Sub FU's:            0
   Integer Mul/Div FU's:            0
   Integer Shifter FU's:            0
   Integer Bitwise FU's:            0
   Floating Point Float Add/Sub:    0
   Floating Point Double Add/Sub:   0
   Floating Point Float Mul/Div:    0
   Floating Point Double Mul/Div:   0
   0 Cycle Compare FU's:            0
   GEP Instruction FU's:            0
   Type Conversion FU's:            0
   Other:                           0

   ========= Pipeline Register Usage =============
   Total Number of Registers:       5641
   Max Register Usage Per Cycle:    137
   Avg Register Usage Per Cycle:    12.130992
   Avg Register Size (Bytes):       5.980606

   ========= Memory Configuration =================
   Cache Bus Ports:                 0
   Shared Cache Size:               0kB
   Local Bus Ports:                 0
   Private SPM Size:                256kB
   Private Read Ports:              0
   Private Write Ports:             0
   Private Read Bus Width:          64
   Private Write Bus Width:         64
       Memory Reads:                0
       Memory Writes:               0
   ========= Power Analysis ======================
   FU Leakage Power:                0.045377 mW 
   FU Dynamic Power:                0.142576 mW 
   FU Total Power:                  0.187953 mW 

   Registers Leakage Power:          0.005281 mW 
   Registers Dynamic Power:          0.015326 mW 
       Register Reads (Bits):        132616
       Register Writes (Bits):       133658
   Registers Total Power:            0.020607 mW

   SPM Leakage Power:               0.104100 mW
   SPM Read Dynamic Power:          18.646159 mW
   SPM Write Dynamic Power:         14.038330 mW
   SPM Total Power:                 32.788590 mW

   Cache Leakage Power:             0.000000 mW
   Cache Read Dynamic Power:        0.000000 mW
   Cache Write Dynamic Power:       0.000000 mW
   Cache Total Power:               0.000000 mW

   Accelerator Power:               0.208559 mW
   Accelerator Power (SPM):         32.997149 mW
   Accelerator Power (Cache):       0.208559 mW

   ========= Area Analysis =======================
   FU Area:                         5472.068359 um^2 (0.005472 mm^2)
   Register Area:                   429.271088 um^2 (0.000429 mm^2)
   SPM Area:                        2177.365505 um^2 (0.002177 mm^2)
   Cache Area:                      0.000000 um^2 (0.000000 mm^2)

   Accelerator Area:                5901.339355 um^2 (0.005901 mm^2)
   Accelerator Area (SPM):          8078.704860 um^2 (0.008079 mm^2)
   Accelerator Area (Cache):        5901.339355 um^2 (0.005901 mm^2)

   ========= SPM Resizing  =======================
   SPM Optimized Leakage Power:     0.004248 mW
   SPM Opt Area:                    178.524902 um^2

7087675625: global: Timer #0 started at tick 7087675625
7087841875: global: Timer #2 started at tick 7087841875
7087876875: global: Timer #2 stopped at tick 7087876875. Duration: 35000
7088115000: global: DAG ID = 0
7088128750: global: Node ID = 118
7088141875: global: Node deadline difference = -3363
7088154375: global: Predicted memory time / byte = 0 us/byte
7088166875: global: Predicted memory time = 0 us
7088179375: global: Predicted memory time / byte = 0 us/byte
7088191875: global: Predicted memory time = 0 us
7088204375: global: Predicted memory time / byte = 0 us/byte
7088216875: global: Predicted memory time = 0 us
7088229375: global: Predicted memory time / byte = 0 us/byte
7088241875: global: Predicted memory time = 0 us
7101568750: system.acctest.elem_matrix0_dma: SRC:0x00000000827e1e00, DST:0x0000000024000020, LEN:65536
7101783750: global: Timer #0 stopped at tick 7101783750. Duration: 14108125
7101796875: global: Number of accelerators running = 1
7113479750: system.acctest.elem_matrix0_dma: Transfer completed in 11.911 us
7113554375: global: Timer #0 started at tick 7113554375
7114904375: global: Timer #0 stopped at tick 7114904375. Duration: 1350000
7114918750: global: Number of accelerators running = 1
********************************************************************************
system.acctest.elem_matrix0.compute
   ========= Performance Analysis =============
   Setup Time:                      5.827275seconds
   Simulation Time:                 74.433562seconds
   System Clock:                    1.000000GHz
   Transistor Latency:              1ns
   Runtime:                         10932 cycles
   Runtime:                         10.932000 us
   Stalls:                          0 cycles
   Executed Nodes:                  10931 cycles

********************************************************************************
   ========= Performance Analysis =================
   Setup Time:                      5827275480.000000ns
   Simulation Time:                 74433561755.000000ns
   System Clock:                    1.000000GHz
   Transistor Latency:              0ns
   Runtime:                         10932 cycles
   Runtime:                         0.000001 seconds
   Stalls:                          0 cycles
       Load Only:                   0 cycles
       Store Only:                  0 cycles
       Compute Only:                0 cycles
       Compute & Store:             0 cycles
       Load & Store:                0 cycles
       Load & Compute:              0 cycles
       Load & Compute & Store:      0 cycles
   Executed Nodes:                  10931 cycles
       Load Only:                   0 cycles
       Store Only:                  5 cycles
       Compute Only:                1 cycles
       Compute & Store:             21 cycles
       Load & Store:                0 cycles
       Load & Compute:              7 cycles
       Load & Compute & Store:      10897 cycles

   ========= Runtime FU's ========= (Max | Avg) ===
   Counter FU's:                      32 | 0.046838
   Integer Add/Sub FU's:               0 | 0.000000
   Integer Mul/Div FU's:               0 | 0.000000
   Integer Shifter FU's:               0 | 0.000000
   Integer Bitwise FU's:               1 | 0.000091
   Floating Point Float Add/Sub:      34 | 0.044252
   Floating Point Double Add/Sub:      0 | 0.000000
   Floating Point Float Mul/Div:       0 | 0.000000
   Floating Point Double Mul/Div:      0 | 0.000000
   0 Cycle Compare FU's:             102 | 0.046974
   GEP Instruction FU's:              96 | 0.046835
   Type Conversion FU's:               7 | 0.006782

   ========= Static FU's ==========================
   Counter FU's:                    0
   Integer Add/Sub FU's:            0
   Integer Mul/Div FU's:            0
   Integer Shifter FU's:            0
   Integer Bitwise FU's:            0
   Floating Point Float Add/Sub:    0
   Floating Point Double Add/Sub:   0
   Floating Point Float Mul/Div:    0
   Floating Point Double Mul/Div:   0
   0 Cycle Compare FU's:            0
   GEP Instruction FU's:            0
   Type Conversion FU's:            0
   Other:                           0

   ========= Pipeline Register Usage =============
   Total Number of Registers:       5641
   Max Register Usage Per Cycle:    138
   Avg Register Usage Per Cycle:    12.130992
   Avg Register Size (Bytes):       5.980606

   ========= Memory Configuration =================
   Cache Bus Ports:                 0
   Shared Cache Size:               0kB
   Local Bus Ports:                 0
   Private SPM Size:                256kB
   Private Read Ports:              0
   Private Write Ports:             0
   Private Read Bus Width:          64
   Private Write Bus Width:         64
       Memory Reads:                0
       Memory Writes:               0
   ========= Power Analysis ======================
   FU Leakage Power:                0.519269 mW 
   FU Dynamic Power:                0.154621 mW 
   FU Total Power:                  0.673890 mW 

   Registers Leakage Power:          0.005281 mW 
   Registers Dynamic Power:          0.015326 mW 
       Register Reads (Bits):        132616
       Register Writes (Bits):       133658
   Registers Total Power:            0.020607 mW

   SPM Leakage Power:               0.104100 mW
   SPM Read Dynamic Power:          18.745082 mW
   SPM Write Dynamic Power:         14.141165 mW
   SPM Total Power:                 32.990348 mW

   Cache Leakage Power:             0.000000 mW
   Cache Read Dynamic Power:        0.000000 mW
   Cache Write Dynamic Power:       0.000000 mW
   Cache Total Power:               0.000000 mW

   Accelerator Power:               0.694497 mW
   Accelerator Power (SPM):         33.684845 mW
   Accelerator Power (Cache):       0.694497 mW

   ========= Area Analysis =======================
   FU Area:                         70212.562500 um^2 (0.070213 mm^2)
   Register Area:                   429.271088 um^2 (0.000429 mm^2)
   SPM Area:                        2177.365505 um^2 (0.002177 mm^2)
   Cache Area:                      0.000000 um^2 (0.000000 mm^2)

   Accelerator Area:                70641.835938 um^2 (0.070642 mm^2)
   Accelerator Area (SPM):          72819.201442 um^2 (0.072819 mm^2)
   Accelerator Area (Cache):        70641.835938 um^2 (0.070642 mm^2)

   ========= SPM Resizing  =======================
   SPM Optimized Leakage Power:     0.004248 mW
   SPM Opt Area:                    178.524902 um^2

7125674375: global: Timer #0 started at tick 7125674375
7138980875: system.acctest.elem_matrix0_dma: SRC:0x0000000024010020, DST:0x0000000082881e00, LEN:65536
7139334375: global: Timer #0 stopped at tick 7139334375. Duration: 13660000
7139348750: global: Number of accelerators running = 1
7145262875: system.acctest.elem_matrix0_dma: Transfer completed in 6.282 us
7145337500: global: Timer #0 started at tick 7145337500
7145510625: global: DAG ID = 0
7145524375: global: Node ID = 119
7145555625: global: DAG execution time = 3637
7145574375: global: DAG deadline difference = -3363
7145593125: global: Node deadline difference = -3363
7145605625: global: Predicted memory time / byte = 0 us/byte
7145618125: global: Predicted memory time = 0 us
7145630625: global: Predicted memory time / byte = 0 us/byte
7145643125: global: Predicted memory time = 0 us
7145655625: global: Predicted memory time / byte = 0 us/byte
7145668125: global: Predicted memory time = 0 us
7145680625: global: Predicted memory time / byte = 0 us/byte
7145693125: global: Predicted memory time = 0 us
7145796250: global: Timer #0 stopped at tick 7145796250. Duration: 458750
7145810625: global: Number of accelerators running = 0
7145889375: global: Number of forwards = 119
7146003750: global: Number of colocations = 88
7146022500: global: Number of DAG deadlines met = 1
7146040625: global: Number of node deadlines met = 120
7146208125: global: Total predicted compute time = 0 us
Exiting @ tick 7146417500 because m5_exit instruction encountered
