gem5 Simulator System.  http://gem5.org
gem5 is copyrighted software; use the --copyright option for details.

gem5 compiled May 11 2023 13:12:28
gem5 started May 28 2023 01:00:29
gem5 executing on node4x10a.cs.rochester.edu, pid 46748
command line: /u/sgupta45/gem5-SALAM/build/ARM/gem5_bus.opt --debug-flags=HWACC,CommInterface,LLVMInterface,StreamDma,NoncoherentDma,TickTimer,SchedulerStats --outdir=BM_ARM_OUT/comb_1/canny_0_deblur_0_gru_0_harris_1_lstm_0_GEDF_N configs/SALAM/scheduler.py --mem-size=4GB --mem-type=LPDDR5_6400_1x16_BG_BL32 --kernel=/u/sgupta45/gem5-SALAM/benchmarks/scheduler/sw/bin_comb_1/canny_0_deblur_0_gru_0_harris_1_lstm_0_GEDF_N.elf --vans-config-path=/u/sgupta45/VANS/config --disk-image=/u/sgupta45/gem5-SALAM/baremetal/common/fake.iso --machine-type=VExpress_GEM5_V1 --dtb-file=none --bare-metal --cpu-type=ex5_LITTLE --cpu-clock=1.6GHz --accpath=/u/sgupta45/gem5-SALAM/benchmarks --caches --cacheline_size=64 --l1d_size=32kB --l1d_assoc=4 --l1i_size=32kB --l1i_assoc=2

Global frequency set at 1000000000000 ticks per second
Cycle Counts Loaded!
Cycle Counts Loaded!
Cycle Counts Loaded!
Cycle Counts Loaded!
Cycle Counts Loaded!
Cycle Counts Loaded!
Cycle Counts Loaded!
Cycle Counts Loaded!
Cycle Counts Loaded!
Cycle Counts Loaded!
Cycle Counts Loaded!
**** REAL SIMULATION ****
14445625: global: Timer #2 started at tick 14445625
14790625: global: Timer #2 stopped at tick 14790625. Duration: 345000
19903750: system.acctest.isp0_dma: SRC:0x0000000082018940, DST:0x0000000027000020, LEN:16900
20448125: global: Number of accelerators running = 1
22957750: system.acctest.isp0_dma: Transfer completed in 3.054 us
23380625: global: Timer #0 started at tick 23380625
25205000: global: Timer #0 stopped at tick 25205000. Duration: 1824375
25264375: global: Number of accelerators running = 1
********************************************************************************
system.acctest.isp0.compute
   ========= Performance Analysis =============
   Setup Time:                      0.236148seconds
   Simulation Time:                 684.663seconds
   System Clock:                    1GHz
   Transistor Latency:              1ns
   Runtime:                         34882 cycles
   Runtime:                         34.882 us
   Stalls:                          1 cycles
   Executed Nodes:                  34880 cycles

********************************************************************************
   ========= Performance Analysis =================
   Setup Time:                      2.36148e+08ns
   Simulation Time:                 6.84663e+11ns
   System Clock:                    1GHz
   Transistor Latency:              0ns
   Runtime:                         34882 cycles
   Runtime:                         3.4882e-06 seconds
   Stalls:                          1 cycles
       Load Only:                   0 cycles
       Store Only:                  1 cycles
       Compute Only:                0 cycles
       Compute & Store:             0 cycles
       Load & Store:                0 cycles
       Load & Compute:              0 cycles
       Load & Compute & Store:      0 cycles
   Executed Nodes:                  34880 cycles
       Load Only:                   0 cycles
       Store Only:                  1 cycles
       Compute Only:                3453 cycles
       Compute & Store:             19014 cycles
       Load & Store:                0 cycles
       Load & Compute:              2467 cycles
       Load & Compute & Store:      9945 cycles

   ========= Runtime FU's ========= (Max | Avg) ===
   Counter FU's:                      10 | 0.118075
   Integer Add/Sub FU's:              76 | 0.082082
   Integer Mul/Div FU's:              11 | 0.043888
   Integer Shifter FU's:              42 | 0.055974
   Integer Bitwise FU's:               4 | 0.059443
   Floating Point Float Add/Sub:      53 | 0.116839
   Floating Point Double Add/Sub:      0 | 0.000000
   Floating Point Float Mul/Div:      76 | 0.625626
   Floating Point Double Mul/Div:      0 | 0.000000
   0 Cycle Compare FU's:              85 | 0.664984
   GEP Instruction FU's:              33 | 0.117424
   Type Conversion FU's:             110 | 0.379700

   ========= Static FU's ==========================
   Counter FU's:                    0
   Integer Add/Sub FU's:            0
   Integer Mul/Div FU's:            0
   Integer Shifter FU's:            0
   Integer Bitwise FU's:            0
   Floating Point Float Add/Sub:    0
   Floating Point Double Add/Sub:   0
   Floating Point Float Mul/Div:    0
   Floating Point Double Mul/Div:   0
   0 Cycle Compare FU's:            0
   GEP Instruction FU's:            0
   Type Conversion FU's:            0
   Other:                           0

   ========= Pipeline Register Usage =============
   Total Number of Registers:       1620
   Max Register Usage Per Cycle:    151
   Avg Register Usage Per Cycle:    58.744711
   Avg Register Size (Bytes):       5.073357

   ========= Memory Configuration =================
   Cache Bus Ports:                 0
   Shared Cache Size:               0kB
   Local Bus Ports:                 0
   Private SPM Size:                112kB
   Private Read Ports:              0
   Private Write Ports:             0
   Private Read Bus Width:          64
   Private Write Bus Width:         64
       Memory Reads:                0
       Memory Writes:               0
   ========= Power Analysis ======================
   FU Leakage Power:                1.637787 mW 
   FU Dynamic Power:                9.655087 mW 
   FU Total Power:                  11.292874 mW 

   Registers Leakage Power:          0.021654 mW 
   Registers Dynamic Power:          3.085961 mW 
       Register Reads (Bits):        2049133
       Register Writes (Bits):       2049168
   Registers Total Power:            3.107615 mW

   SPM Leakage Power:               0.061081 mW
   SPM Read Dynamic Power:          11.103730 mW
   SPM Write Dynamic Power:         7.385230 mW
   SPM Total Power:                 18.550041 mW

   Cache Leakage Power:             0.000000 mW
   Cache Read Dynamic Power:        0.000000 mW
   Cache Write Dynamic Power:       0.000000 mW
   Cache Total Power:               0.000000 mW

   Accelerator Power:               14.400490 mW
   Accelerator Power (SPM):         32.950531 mW
   Accelerator Power (Cache):       14.400490 mW

   ========= Area Analysis =======================
   FU Area:                         176023.796875 um^2 (0.176024 mm^2)
   Register Area:                   1760.064941 um^2 (0.001760 mm^2)
   SPM Area:                        2165.394891 um^2 (0.002165 mm^2)
   Cache Area:                      0.000000 um^2 (0.000000 mm^2)

   Accelerator Area:                177783.859375 um^2 (0.177784 mm^2)
   Accelerator Area (SPM):          179949.254266 um^2 (0.179949 mm^2)
   Accelerator Area (Cache):        177783.859375 um^2 (0.177784 mm^2)

   ========= SPM Resizing  =======================
   SPM Optimized Leakage Power:     0.005964 mW
   SPM Opt Area:                    422.108128 um^2

59662500: global: Timer #0 started at tick 59662500
59977500: global: Timer #2 started at tick 59977500
60240000: global: Timer #2 stopped at tick 60240000. Duration: 262500
61060000: global: DAG ID = 0
61079375: global: Node ID = 0
61097500: global: Node deadline difference = -13981
61159375: global: Predicted memory time / byte = 0 us/byte
61177500: global: Predicted memory time = 0 us
61195625: global: Predicted memory time / byte = 0 us/byte
61213750: global: Predicted memory time = 0 us
61231875: global: Predicted memory time / byte = 0 us/byte
61293125: global: Predicted memory time = 0 us
61311250: global: Predicted memory time / byte = 0 us/byte
61329375: global: Predicted memory time = 0 us
62585875: system.acctest.grayscale0_dma: SRC:0x0000000027004224, DST:0x0000000025000020, LEN:49152
63088125: global: Timer #0 stopped at tick 63088125. Duration: 3425625
63102500: global: Number of accelerators running = 1
70286875: system.acctest.grayscale0_dma: Transfer completed in 7.701 us
70381875: global: Timer #0 started at tick 70381875
71565000: global: Timer #0 stopped at tick 71565000. Duration: 1183125
71579375: global: Number of accelerators running = 1
********************************************************************************
system.acctest.grayscale0.compute
   ========= Performance Analysis =============
   Setup Time:                      0.008207seconds
   Simulation Time:                 180.094730seconds
   System Clock:                    1.000000GHz
   Transistor Latency:              1ns
   Runtime:                         10263 cycles
   Runtime:                         10.263000 us
   Stalls:                          1 cycles
   Executed Nodes:                  10261 cycles

********************************************************************************
   ========= Performance Analysis =================
   Setup Time:                      8206860.000000ns
   Simulation Time:                 180094729831.000000ns
   System Clock:                    1.000000GHz
   Transistor Latency:              0ns
   Runtime:                         10263 cycles
   Runtime:                         0.000001 seconds
   Stalls:                          1 cycles
       Load Only:                   0 cycles
       Store Only:                  1 cycles
       Compute Only:                0 cycles
       Compute & Store:             0 cycles
       Load & Store:                0 cycles
       Load & Compute:              0 cycles
       Load & Compute & Store:      0 cycles
   Executed Nodes:                  10261 cycles
       Load Only:                   0 cycles
       Store Only:                  1 cycles
       Compute Only:                88 cycles
       Compute & Store:             344 cycles
       Load & Store:                0 cycles
       Load & Compute:              1981 cycles
       Load & Compute & Store:      7847 cycles

   ========= Runtime FU's ========= (Max | Avg) ===
   Counter FU's:                      24 | 0.199556
   Integer Add/Sub FU's:               0 | 0.000000
   Integer Mul/Div FU's:               8 | 0.199552
   Integer Shifter FU's:               0 | 0.000000
   Integer Bitwise FU's:               1 | 0.000097
   Floating Point Float Add/Sub:      49 | 0.114264
   Floating Point Double Add/Sub:      0 | 0.000000
   Floating Point Float Mul/Div:      42 | 0.114129
   Floating Point Double Mul/Div:      0 | 0.000000
   0 Cycle Compare FU's:               9 | 0.066626
   GEP Instruction FU's:              36 | 0.177452
   Type Conversion FU's:              76 | 0.401969

   ========= Static FU's ==========================
   Counter FU's:                    0
   Integer Add/Sub FU's:            0
   Integer Mul/Div FU's:            0
   Integer Shifter FU's:            0
   Integer Bitwise FU's:            0
   Floating Point Float Add/Sub:    0
   Floating Point Double Add/Sub:   0
   Floating Point Float Mul/Div:    0
   Floating Point Double Mul/Div:   0
   0 Cycle Compare FU's:            0
   GEP Instruction FU's:            0
   Type Conversion FU's:            0
   Other:                           0

   ========= Pipeline Register Usage =============
   Total Number of Registers:       235
   Max Register Usage Per Cycle:    90
   Avg Register Usage Per Cycle:    33.924291
   Avg Register Size (Bytes):       5.841147

   ========= Memory Configuration =================
   Cache Bus Ports:                 0
   Shared Cache Size:               0kB
   Local Bus Ports:                 0
   Private SPM Size:                176kB
   Private Read Ports:              0
   Private Write Ports:             0
   Private Read Bus Width:          64
   Private Write Bus Width:         64
       Memory Reads:                0
       Memory Writes:               0
   ========= Power Analysis ======================
   FU Leakage Power:                1.178269 mW 
   FU Dynamic Power:                0.617392 mW 
   FU Total Power:                  1.795662 mW 

   Registers Leakage Power:          0.014185 mW 
   Registers Dynamic Power:          0.101057 mW 
       Register Reads (Bits):        348165
       Register Writes (Bits):       348168
   Registers Total Power:            0.115242 mW

   SPM Leakage Power:               0.089881 mW
   SPM Read Dynamic Power:          6.997296 mW
   SPM Write Dynamic Power:         2.062375 mW
   SPM Total Power:                 9.149552 mW

   Cache Leakage Power:             0.000000 mW
   Cache Read Dynamic Power:        0.000000 mW
   Cache Write Dynamic Power:       0.000000 mW
   Cache Total Power:               0.000000 mW

   Accelerator Power:               1.910904 mW
   Accelerator Power (SPM):         11.060456 mW
   Accelerator Power (Cache):       1.910904 mW

   ========= Area Analysis =======================
   FU Area:                         143348.187500 um^2 (0.143348 mm^2)
   Register Area:                   1152.968140 um^2 (0.001153 mm^2)
   SPM Area:                        3573.642862 um^2 (0.003574 mm^2)
   Cache Area:                      0.000000 um^2 (0.000000 mm^2)

   Accelerator Area:                144501.156250 um^2 (0.144501 mm^2)
   Accelerator Area (SPM):          148074.799112 um^2 (0.148075 mm^2)
   Accelerator Area (Cache):        144501.156250 um^2 (0.144501 mm^2)

   ========= SPM Resizing  =======================
   SPM Optimized Leakage Power:     0.003633 mW
   SPM Opt Area:                    364.024374 um^2

81477500: global: Timer #0 started at tick 81477500
81646875: global: Timer #2 started at tick 81646875
81692500: global: Timer #2 stopped at tick 81692500. Duration: 45625
81728750: global: Timer #2 started at tick 81728750
82073750: global: Timer #2 stopped at tick 82073750. Duration: 345000
95570875: system.acctest.grayscale0_dma: SRC:0x000000002500c020, DST:0x0000000082028d00, LEN:65536
97555875: system.acctest.convolution0_dma: SRC:0x000000002500c020, DST:0x0000000022000020, LEN:65536
98000000: global: Timer #0 stopped at tick 98000000. Duration: 16522500
98014375: global: Number of accelerators running = 2
106226875: system.acctest.grayscale0_dma: Transfer completed in 10.656 us
106345625: global: Timer #0 started at tick 106345625
106578125: global: DAG ID = 0
106640000: global: Node ID = 1
106711250: global: Node deadline difference = -13972
106731250: global: Predicted memory time / byte = 0 us/byte
106749375: global: Predicted memory time = 0 us
106767500: global: Predicted memory time / byte = 0 us/byte
106785625: global: Predicted memory time = 0 us
106803750: global: Predicted memory time / byte = 0 us/byte
106821875: global: Predicted memory time = 0 us
106840000: global: Predicted memory time / byte = 0 us/byte
106858125: global: Predicted memory time = 0 us
106985000: global: Timer #0 stopped at tick 106985000. Duration: 639375
106999375: global: Number of accelerators running = 1
110843875: system.acctest.convolution0_dma: Transfer completed in 13.288 us
110983125: global: Timer #0 started at tick 110983125
112319500: system.acctest.convolution0_dma: SRC:0x0000000082039000, DST:0x0000000022030020, LEN:36
112352500: system.acctest.convolution0_dma: Transfer completed in 0.033 us
112547500: global: Timer #0 stopped at tick 112547500. Duration: 1564375
112561875: global: Number of accelerators running = 1
112674375: global: Timer #0 started at tick 112674375
113990625: global: Timer #0 stopped at tick 113990625. Duration: 1316250
114005000: global: Number of accelerators running = 1
********************************************************************************
system.acctest.convolution0.compute
   ========= Performance Analysis =============
   Setup Time:                      0.700072seconds
   Simulation Time:                 130.003709seconds
   System Clock:                    1.000000GHz
   Transistor Latency:              1ns
   Runtime:                         637329 cycles
   Runtime:                         637.329000 us
   Stalls:                          7 cycles
   Executed Nodes:                  637321 cycles

********************************************************************************
   ========= Performance Analysis =================
   Setup Time:                      700071944.000000ns
   Simulation Time:                 130003709367.000000ns
   System Clock:                    1.000000GHz
   Transistor Latency:              0ns
   Runtime:                         637329 cycles
   Runtime:                         0.000064 seconds
   Stalls:                          7 cycles
       Load Only:                   0 cycles
       Store Only:                  1 cycles
       Compute Only:                6 cycles
       Compute & Store:             0 cycles
       Load & Store:                0 cycles
       Load & Compute:              0 cycles
       Load & Compute & Store:      0 cycles
   Executed Nodes:                  637321 cycles
       Load Only:                   0 cycles
       Store Only:                  1 cycles
       Compute Only:                475397 cycles
       Compute & Store:             15999 cycles
       Load & Store:                0 cycles
       Load & Compute:              145540 cycles
       Load & Compute & Store:      384 cycles

   ========= Runtime FU's ========= (Max | Avg) ===
   Counter FU's:                       3 | 0.119701
   Integer Add/Sub FU's:               4 | 0.197730
   Integer Mul/Div FU's:               1 | 0.076720
   Integer Shifter FU's:              10 | 0.007714
   Integer Bitwise FU's:               2 | 0.192204
   Floating Point Float Add/Sub:       4 | 0.202424
   Floating Point Double Add/Sub:      0 | 0.000000
   Floating Point Float Mul/Div:       2 | 0.114482
   Floating Point Double Mul/Div:      0 | 0.000000
   0 Cycle Compare FU's:              40 | 0.135811
   GEP Instruction FU's:               2 | 0.241815
   Type Conversion FU's:               9 | 0.181785

   ========= Static FU's ==========================
   Counter FU's:                    0
   Integer Add/Sub FU's:            0
   Integer Mul/Div FU's:            0
   Integer Shifter FU's:            0
   Integer Bitwise FU's:            0
   Floating Point Float Add/Sub:    0
   Floating Point Double Add/Sub:   0
   Floating Point Float Mul/Div:    0
   Floating Point Double Mul/Div:   0
   0 Cycle Compare FU's:            0
   GEP Instruction FU's:            0
   Type Conversion FU's:            0
   Other:                           0

   ========= Pipeline Register Usage =============
   Total Number of Registers:       1702
   Max Register Usage Per Cycle:    17
   Avg Register Usage Per Cycle:    6.079275
   Avg Register Size (Bytes):       5.490795

   ========= Memory Configuration =================
   Cache Bus Ports:                 0
   Shared Cache Size:               0kB
   Local Bus Ports:                 0
   Private SPM Size:                192kB
   Private Read Ports:              0
   Private Write Ports:             0
   Private Read Bus Width:          64
   Private Write Bus Width:         64
       Memory Reads:                0
       Memory Writes:               0
   ========= Power Analysis ======================
   FU Leakage Power:                0.181658 mW 
   FU Dynamic Power:                392.771942 mW 
   FU Total Power:                  392.953613 mW 

   Registers Leakage Power:          0.002424 mW 
   Registers Dynamic Power:          12.192513 mW 
       Register Reads (Bits):        3874498
       Register Writes (Bits):       4041055
   Registers Total Power:            12.194937 mW

   SPM Leakage Power:               0.078311 mW
   SPM Read Dynamic Power:          7.281672 mW
   SPM Write Dynamic Power:         0.953321 mW
   SPM Total Power:                 8.313304 mW

   Cache Leakage Power:             0.000000 mW
   Cache Read Dynamic Power:        0.000000 mW
   Cache Write Dynamic Power:       0.000000 mW
   Cache Total Power:               0.000000 mW

   Accelerator Power:               405.148560 mW
   Accelerator Power (SPM):         413.461864 mW
   Accelerator Power (Cache):       405.148560 mW

   ========= Area Analysis =======================
   FU Area:                         20868.273438 um^2 (0.020868 mm^2)
   Register Area:                   197.056931 um^2 (0.000197 mm^2)
   SPM Area:                        1748.188735 um^2 (0.001748 mm^2)
   Cache Area:                      0.000000 um^2 (0.000000 mm^2)

   Accelerator Area:                21065.330078 um^2 (0.021065 mm^2)
   Accelerator Area (SPM):          22813.518813 um^2 (0.022814 mm^2)
   Accelerator Area (Cache):        21065.330078 um^2 (0.021065 mm^2)

   ========= SPM Resizing  =======================
   SPM Optimized Leakage Power:     0.002053 mW
   SPM Opt Area:                    145.024971 um^2

751178125: global: Timer #0 started at tick 751178125
751353125: global: Timer #2 started at tick 751353125
751400625: global: Timer #2 stopped at tick 751400625. Duration: 47500
764817375: system.acctest.convolution0_dma: SRC:0x0000000022010020, DST:0x0000000082039080, LEN:65536
766889500: system.acctest.elem_matrix0_dma: SRC:0x0000000022010020, DST:0x0000000024000020, LEN:65536
767310625: global: Timer #0 stopped at tick 767310625. Duration: 16132500
767325000: global: Number of accelerators running = 2
775408375: system.acctest.convolution0_dma: Transfer completed in 10.591 us
775482500: global: Timer #0 started at tick 775482500
775655625: global: DAG ID = 0
775669375: global: Node ID = 2
775688750: global: Node deadline difference = -13971
775701250: global: Predicted memory time / byte = 0 us/byte
775713750: global: Predicted memory time = 0 us
775726250: global: Predicted memory time / byte = 0 us/byte
775738750: global: Predicted memory time = 0 us
775751250: global: Predicted memory time / byte = 0 us/byte
775763750: global: Predicted memory time = 0 us
775776250: global: Predicted memory time / byte = 0 us/byte
775788750: global: Predicted memory time = 0 us
780109500: system.acctest.elem_matrix0_dma: Transfer completed in 13.22 us
789337375: system.acctest.convolution0_dma: SRC:0x0000000082028d00, DST:0x0000000022000020, LEN:65536
789595625: global: Timer #0 stopped at tick 789595625. Duration: 14113125
789610000: global: Number of accelerators running = 2
789779375: global: Timer #0 started at tick 789779375
791833125: global: Timer #0 stopped at tick 791833125. Duration: 2053750
791847500: global: Number of accelerators running = 2
********************************************************************************
system.acctest.elem_matrix0.compute
   ========= Performance Analysis =============
   Setup Time:                      5.143159seconds
   Simulation Time:                 106.157027seconds
   System Clock:                    1.000000GHz
   Transistor Latency:              1ns
   Runtime:                         8199 cycles
   Runtime:                         8.199000 us
   Stalls:                          2729 cycles
   Executed Nodes:                  5469 cycles

********************************************************************************
   ========= Performance Analysis =================
   Setup Time:                      5143158786.000000ns
   Simulation Time:                 106157027043.000000ns
   System Clock:                    1.000000GHz
   Transistor Latency:              0ns
   Runtime:                         8199 cycles
   Runtime:                         0.000001 seconds
   Stalls:                          2729 cycles
       Load Only:                   0 cycles
       Store Only:                  2729 cycles
       Compute Only:                0 cycles
       Compute & Store:             0 cycles
       Load & Store:                0 cycles
       Load & Compute:              0 cycles
       Load & Compute & Store:      0 cycles
   Executed Nodes:                  5469 cycles
       Load Only:                   0 cycles
       Store Only:                  4 cycles
       Compute Only:                1 cycles
       Compute & Store:             11 cycles
       Load & Store:                0 cycles
       Load & Compute:              6 cycles
       Load & Compute & Store:      5447 cycles

   ========= Runtime FU's ========= (Max | Avg) ===
   Counter FU's:                      32 | 0.062450
   Integer Add/Sub FU's:               0 | 0.000000
   Integer Mul/Div FU's:               0 | 0.000000
   Integer Shifter FU's:               0 | 0.000000
   Integer Bitwise FU's:               1 | 0.000122
   Floating Point Float Add/Sub:       0 | 0.000000
   Floating Point Double Add/Sub:      0 | 0.000000
   Floating Point Float Mul/Div:      35 | 0.057652
   Floating Point Double Mul/Div:      0 | 0.000000
   0 Cycle Compare FU's:              15 | 0.025182
   GEP Instruction FU's:              64 | 0.062447
   Type Conversion FU's:               7 | 0.009043

   ========= Static FU's ==========================
   Counter FU's:                    0
   Integer Add/Sub FU's:            0
   Integer Mul/Div FU's:            0
   Integer Shifter FU's:            0
   Integer Bitwise FU's:            0
   Floating Point Float Add/Sub:    0
   Floating Point Double Add/Sub:   0
   Floating Point Float Mul/Div:    0
   Floating Point Double Mul/Div:   0
   0 Cycle Compare FU's:            0
   GEP Instruction FU's:            0
   Type Conversion FU's:            0
   Other:                           0

   ========= Pipeline Register Usage =============
   Total Number of Registers:       5641
   Max Register Usage Per Cycle:    104
   Avg Register Usage Per Cycle:    10.117331
   Avg Register Size (Bytes):       6.376398

   ========= Memory Configuration =================
   Cache Bus Ports:                 0
   Shared Cache Size:               0kB
   Local Bus Ports:                 0
   Private SPM Size:                256kB
   Private Read Ports:              0
   Private Write Ports:             0
   Private Read Bus Width:          64
   Private Write Bus Width:         64
       Memory Reads:                0
       Memory Writes:               0
   ========= Power Analysis ======================
   FU Leakage Power:                0.045377 mW 
   FU Dynamic Power:                0.051978 mW 
   FU Total Power:                  0.097355 mW 

   Registers Leakage Power:          0.004692 mW 
   Registers Dynamic Power:          0.006422 mW 
       Register Reads (Bits):        82952
       Register Writes (Bits):       84505
   Registers Total Power:            0.011115 mW

   SPM Leakage Power:               0.104100 mW
   SPM Read Dynamic Power:          0.905625 mW
   SPM Write Dynamic Power:         0.953321 mW
   SPM Total Power:                 1.963046 mW

   Cache Leakage Power:             0.000000 mW
   Cache Read Dynamic Power:        0.000000 mW
   Cache Write Dynamic Power:       0.000000 mW
   Cache Total Power:               0.000000 mW

   Accelerator Power:               0.108470 mW
   Accelerator Power (SPM):         2.071516 mW
   Accelerator Power (Cache):       0.108470 mW

   ========= Area Analysis =======================
   FU Area:                         5472.068359 um^2 (0.005472 mm^2)
   Register Area:                   381.399994 um^2 (0.000381 mm^2)
   SPM Area:                        2177.365505 um^2 (0.002177 mm^2)
   Cache Area:                      0.000000 um^2 (0.000000 mm^2)

   Accelerator Area:                5853.468262 um^2 (0.005853 mm^2)
   Accelerator Area (SPM):          8030.833767 um^2 (0.008031 mm^2)
   Accelerator Area (Cache):        5853.468262 um^2 (0.005853 mm^2)

   ========= SPM Resizing  =======================
   SPM Optimized Leakage Power:     0.003237 mW
   SPM Opt Area:                    162.973445 um^2

799805625: global: Timer #0 started at tick 799805625
799985625: global: Timer #2 started at tick 799985625
800032500: global: Timer #2 stopped at tick 800032500. Duration: 46875
801338375: system.acctest.convolution0_dma: Transfer completed in 12.001 us
813290875: system.acctest.elem_matrix0_dma: SRC:0x0000000024010020, DST:0x0000000082059900, LEN:65536
813672500: global: Timer #0 stopped at tick 813672500. Duration: 13866875
813686875: global: Number of accelerators running = 2
813801875: global: Timer #0 started at tick 813801875
814764000: system.acctest.convolution0_dma: SRC:0x0000000082039040, DST:0x0000000022030020, LEN:36
814916000: system.acctest.convolution0_dma: Transfer completed in 0.152 us
814995625: global: Timer #0 stopped at tick 814995625. Duration: 1193750
815010000: global: Number of accelerators running = 2
815116250: global: Timer #0 started at tick 815116250
816483750: global: Timer #0 stopped at tick 816483750. Duration: 1367500
816498125: global: Number of accelerators running = 2
819639875: system.acctest.elem_matrix0_dma: Transfer completed in 6.349 us
819723750: global: Timer #0 started at tick 819723750
819896250: global: DAG ID = 0
819910000: global: Node ID = 4
819929375: global: Node deadline difference = -13967
819941875: global: Predicted memory time / byte = 0 us/byte
819954375: global: Predicted memory time = 0 us
819966875: global: Predicted memory time / byte = 0 us/byte
819979375: global: Predicted memory time = 0 us
819991875: global: Predicted memory time / byte = 0 us/byte
820004375: global: Predicted memory time = 0 us
820016875: global: Predicted memory time / byte = 0 us/byte
820029375: global: Predicted memory time = 0 us
820139375: global: Timer #0 stopped at tick 820139375. Duration: 415625
820153750: global: Number of accelerators running = 1
********************************************************************************
system.acctest.convolution0.compute
   ========= Performance Analysis =============
   Setup Time:                      0.707706seconds
   Simulation Time:                 120.855689seconds
   System Clock:                    1.000000GHz
   Transistor Latency:              1ns
   Runtime:                         637329 cycles
   Runtime:                         637.329000 us
   Stalls:                          7 cycles
   Executed Nodes:                  637321 cycles

********************************************************************************
   ========= Performance Analysis =================
   Setup Time:                      707706226.000000ns
   Simulation Time:                 120855689043.000000ns
   System Clock:                    1.000000GHz
   Transistor Latency:              0ns
   Runtime:                         637329 cycles
   Runtime:                         0.000064 seconds
   Stalls:                          7 cycles
       Load Only:                   0 cycles
       Store Only:                  1 cycles
       Compute Only:                6 cycles
       Compute & Store:             0 cycles
       Load & Store:                0 cycles
       Load & Compute:              0 cycles
       Load & Compute & Store:      0 cycles
   Executed Nodes:                  637321 cycles
       Load Only:                   0 cycles
       Store Only:                  1 cycles
       Compute Only:                475397 cycles
       Compute & Store:             15999 cycles
       Load & Store:                0 cycles
       Load & Compute:              145540 cycles
       Load & Compute & Store:      384 cycles

   ========= Runtime FU's ========= (Max | Avg) ===
   Counter FU's:                       3 | 0.119701
   Integer Add/Sub FU's:               4 | 0.197730
   Integer Mul/Div FU's:               1 | 0.076720
   Integer Shifter FU's:              10 | 0.007714
   Integer Bitwise FU's:               2 | 0.192204
   Floating Point Float Add/Sub:       4 | 0.202424
   Floating Point Double Add/Sub:      0 | 0.000000
   Floating Point Float Mul/Div:       2 | 0.114482
   Floating Point Double Mul/Div:      0 | 0.000000
   0 Cycle Compare FU's:              40 | 0.135811
   GEP Instruction FU's:               2 | 0.241815
   Type Conversion FU's:               9 | 0.181785

   ========= Static FU's ==========================
   Counter FU's:                    0
   Integer Add/Sub FU's:            0
   Integer Mul/Div FU's:            0
   Integer Shifter FU's:            0
   Integer Bitwise FU's:            0
   Floating Point Float Add/Sub:    0
   Floating Point Double Add/Sub:   0
   Floating Point Float Mul/Div:    0
   Floating Point Double Mul/Div:   0
   0 Cycle Compare FU's:            0
   GEP Instruction FU's:            0
   Type Conversion FU's:            0
   Other:                           0

   ========= Pipeline Register Usage =============
   Total Number of Registers:       1702
   Max Register Usage Per Cycle:    17
   Avg Register Usage Per Cycle:    6.079275
   Avg Register Size (Bytes):       5.490795

   ========= Memory Configuration =================
   Cache Bus Ports:                 0
   Shared Cache Size:               0kB
   Local Bus Ports:                 0
   Private SPM Size:                192kB
   Private Read Ports:              0
   Private Write Ports:             0
   Private Read Bus Width:          64
   Private Write Bus Width:         64
       Memory Reads:                0
       Memory Writes:               0
   ========= Power Analysis ======================
   FU Leakage Power:                0.181658 mW 
   FU Dynamic Power:                392.771942 mW 
   FU Total Power:                  392.953613 mW 

   Registers Leakage Power:          0.002424 mW 
   Registers Dynamic Power:          12.192513 mW 
       Register Reads (Bits):        3874498
       Register Writes (Bits):       4041055
   Registers Total Power:            12.194937 mW

   SPM Leakage Power:               0.078311 mW
   SPM Read Dynamic Power:          9.773991 mW
   SPM Write Dynamic Power:         2.044305 mW
   SPM Total Power:                 11.896606 mW

   Cache Leakage Power:             0.000000 mW
   Cache Read Dynamic Power:        0.000000 mW
   Cache Write Dynamic Power:       0.000000 mW
   Cache Total Power:               0.000000 mW

   Accelerator Power:               405.148560 mW
   Accelerator Power (SPM):         417.045166 mW
   Accelerator Power (Cache):       405.148560 mW

   ========= Area Analysis =======================
   FU Area:                         20868.273438 um^2 (0.020868 mm^2)
   Register Area:                   197.056931 um^2 (0.000197 mm^2)
   SPM Area:                        1748.188735 um^2 (0.001748 mm^2)
   Cache Area:                      0.000000 um^2 (0.000000 mm^2)

   Accelerator Area:                21065.330078 um^2 (0.021065 mm^2)
   Accelerator Area (SPM):          22813.518813 um^2 (0.022814 mm^2)
   Accelerator Area (Cache):        21065.330078 um^2 (0.021065 mm^2)

   ========= SPM Resizing  =======================
   SPM Optimized Leakage Power:     0.002053 mW
   SPM Opt Area:                    145.024971 um^2

1453676875: global: Timer #0 started at tick 1453676875
1453859375: global: Timer #2 started at tick 1453859375
1453899375: global: Timer #2 stopped at tick 1453899375. Duration: 40000
1453933125: global: Timer #2 started at tick 1453933125
1454018750: global: Timer #2 stopped at tick 1454018750. Duration: 85625
1467247375: system.acctest.convolution0_dma: SRC:0x0000000022010020, DST:0x0000000082049080, LEN:65536
1468511000: system.acctest.elem_matrix0_dma: SRC:0x0000000022010020, DST:0x0000000024000020, LEN:65536
1468737500: global: Timer #0 stopped at tick 1468737500. Duration: 15060625
1468751875: global: Number of accelerators running = 2
1479375375: system.acctest.convolution0_dma: Transfer completed in 12.128 us
1479449375: global: Timer #0 started at tick 1479449375
1479620625: global: DAG ID = 0
1479634375: global: Node ID = 3
1479653750: global: Node deadline difference = -13267
1479666250: global: Predicted memory time / byte = 0 us/byte
1479678750: global: Predicted memory time = 0 us
1479691250: global: Predicted memory time / byte = 0 us/byte
1479703750: global: Predicted memory time = 0 us
1479716250: global: Predicted memory time / byte = 0 us/byte
1479728750: global: Predicted memory time = 0 us
1479741250: global: Predicted memory time / byte = 0 us/byte
1479753750: global: Predicted memory time = 0 us
1482189000: system.acctest.elem_matrix0_dma: Transfer completed in 13.678 us
1493140875: system.acctest.convolution0_dma: SRC:0x0000000082059900, DST:0x0000000022000020, LEN:65536
1493398750: global: Timer #0 stopped at tick 1493398750. Duration: 13949375
1493413125: global: Number of accelerators running = 2
1493575000: global: Timer #0 started at tick 1493575000
1495083750: global: Timer #0 stopped at tick 1495083750. Duration: 1508750
1495098125: global: Number of accelerators running = 2
********************************************************************************
system.acctest.elem_matrix0.compute
   ========= Performance Analysis =============
   Setup Time:                      5.218650seconds
   Simulation Time:                 106.370541seconds
   System Clock:                    1.000000GHz
   Transistor Latency:              1ns
   Runtime:                         8199 cycles
   Runtime:                         8.199000 us
   Stalls:                          2729 cycles
   Executed Nodes:                  5469 cycles

********************************************************************************
   ========= Performance Analysis =================
   Setup Time:                      5218649716.000000ns
   Simulation Time:                 106370540773.000000ns
   System Clock:                    1.000000GHz
   Transistor Latency:              0ns
   Runtime:                         8199 cycles
   Runtime:                         0.000001 seconds
   Stalls:                          2729 cycles
       Load Only:                   0 cycles
       Store Only:                  2729 cycles
       Compute Only:                0 cycles
       Compute & Store:             0 cycles
       Load & Store:                0 cycles
       Load & Compute:              0 cycles
       Load & Compute & Store:      0 cycles
   Executed Nodes:                  5469 cycles
       Load Only:                   0 cycles
       Store Only:                  4 cycles
       Compute Only:                1 cycles
       Compute & Store:             11 cycles
       Load & Store:                0 cycles
       Load & Compute:              6 cycles
       Load & Compute & Store:      5447 cycles

   ========= Runtime FU's ========= (Max | Avg) ===
   Counter FU's:                      32 | 0.062450
   Integer Add/Sub FU's:               0 | 0.000000
   Integer Mul/Div FU's:               0 | 0.000000
   Integer Shifter FU's:               0 | 0.000000
   Integer Bitwise FU's:               1 | 0.000122
   Floating Point Float Add/Sub:       0 | 0.000000
   Floating Point Double Add/Sub:      0 | 0.000000
   Floating Point Float Mul/Div:      35 | 0.057652
   Floating Point Double Mul/Div:      0 | 0.000000
   0 Cycle Compare FU's:              15 | 0.025182
   GEP Instruction FU's:              64 | 0.062447
   Type Conversion FU's:               7 | 0.009043

   ========= Static FU's ==========================
   Counter FU's:                    0
   Integer Add/Sub FU's:            0
   Integer Mul/Div FU's:            0
   Integer Shifter FU's:            0
   Integer Bitwise FU's:            0
   Floating Point Float Add/Sub:    0
   Floating Point Double Add/Sub:   0
   Floating Point Float Mul/Div:    0
   Floating Point Double Mul/Div:   0
   0 Cycle Compare FU's:            0
   GEP Instruction FU's:            0
   Type Conversion FU's:            0
   Other:                           0

   ========= Pipeline Register Usage =============
   Total Number of Registers:       5641
   Max Register Usage Per Cycle:    104
   Avg Register Usage Per Cycle:    10.117331
   Avg Register Size (Bytes):       6.376398

   ========= Memory Configuration =================
   Cache Bus Ports:                 0
   Shared Cache Size:               0kB
   Local Bus Ports:                 0
   Private SPM Size:                256kB
   Private Read Ports:              0
   Private Write Ports:             0
   Private Read Bus Width:          64
   Private Write Bus Width:         64
       Memory Reads:                0
       Memory Writes:               0
   ========= Power Analysis ======================
   FU Leakage Power:                0.045377 mW 
   FU Dynamic Power:                0.051978 mW 
   FU Total Power:                  0.097355 mW 

   Registers Leakage Power:          0.004692 mW 
   Registers Dynamic Power:          0.006422 mW 
       Register Reads (Bits):        82952
       Register Writes (Bits):       84505
   Registers Total Power:            0.011115 mW

   SPM Leakage Power:               0.104100 mW
   SPM Read Dynamic Power:          1.997266 mW
   SPM Write Dynamic Power:         2.044305 mW
   SPM Total Power:                 4.145671 mW

   Cache Leakage Power:             0.000000 mW
   Cache Read Dynamic Power:        0.000000 mW
   Cache Write Dynamic Power:       0.000000 mW
   Cache Total Power:               0.000000 mW

   Accelerator Power:               0.108470 mW
   Accelerator Power (SPM):         4.254141 mW
   Accelerator Power (Cache):       0.108470 mW

   ========= Area Analysis =======================
   FU Area:                         5472.068359 um^2 (0.005472 mm^2)
   Register Area:                   381.399994 um^2 (0.000381 mm^2)
   SPM Area:                        2177.365505 um^2 (0.002177 mm^2)
   Cache Area:                      0.000000 um^2 (0.000000 mm^2)

   Accelerator Area:                5853.468262 um^2 (0.005853 mm^2)
   Accelerator Area (SPM):          8030.833767 um^2 (0.008031 mm^2)
   Accelerator Area (Cache):        5853.468262 um^2 (0.005853 mm^2)

   ========= SPM Resizing  =======================
   SPM Optimized Leakage Power:     0.003237 mW
   SPM Opt Area:                    162.973445 um^2

1503102500: global: Timer #0 started at tick 1503102500
1503271250: global: Timer #2 started at tick 1503271250
1503303125: global: Timer #2 stopped at tick 1503303125. Duration: 31875
1505113875: system.acctest.convolution0_dma: Transfer completed in 11.973 us
1516505875: system.acctest.elem_matrix0_dma: SRC:0x0000000024010020, DST:0x0000000082079900, LEN:65536
1516900625: global: Timer #0 stopped at tick 1516900625. Duration: 13798125
1516915000: global: Number of accelerators running = 2
1517031875: global: Timer #0 started at tick 1517031875
1517967000: system.acctest.convolution0_dma: SRC:0x00000000820b9900, DST:0x0000000022030020, LEN:100
1518225625: global: Timer #0 stopped at tick 1518225625. Duration: 1193750
1518240000: global: Number of accelerators running = 2
1518424000: system.acctest.convolution0_dma: Transfer completed in 0.457 us
1518498125: global: Timer #0 started at tick 1518498125
1519860000: global: Timer #0 stopped at tick 1519860000. Duration: 1361875
1519874375: global: Number of accelerators running = 2
1522875875: system.acctest.elem_matrix0_dma: Transfer completed in 6.37 us
1522961250: global: Timer #0 started at tick 1522961250
1523132500: global: DAG ID = 0
1523146250: global: Node ID = 6
1523165625: global: Node deadline difference = -13263
1523178125: global: Predicted memory time / byte = 0 us/byte
1523190625: global: Predicted memory time = 0 us
1523203125: global: Predicted memory time / byte = 0 us/byte
1523215625: global: Predicted memory time = 0 us
1523228125: global: Predicted memory time / byte = 0 us/byte
1523240625: global: Predicted memory time = 0 us
1523253125: global: Predicted memory time / byte = 0 us/byte
1523265625: global: Predicted memory time = 0 us
1536819500: system.acctest.elem_matrix0_dma: SRC:0x0000000082039080, DST:0x0000000024000020, LEN:65536
1537024375: global: Timer #0 stopped at tick 1537024375. Duration: 14063125
1537038750: global: Number of accelerators running = 2
1548813500: system.acctest.elem_matrix0_dma: Transfer completed in 11.994 us
1548887500: global: Timer #0 started at tick 1548887500
1562438750: system.acctest.elem_matrix0_dma: SRC:0x0000000082049080, DST:0x0000000024010020, LEN:65536
1562690625: global: Timer #0 stopped at tick 1562690625. Duration: 13803125
1562705000: global: Number of accelerators running = 2
1574418750: system.acctest.elem_matrix0_dma: Transfer completed in 11.98 us
1574492500: global: Timer #0 started at tick 1574492500
1575873750: global: Timer #0 stopped at tick 1575873750. Duration: 1381250
1575888125: global: Number of accelerators running = 2
********************************************************************************
system.acctest.elem_matrix0.compute
   ========= Performance Analysis =============
   Setup Time:                      6.296075seconds
   Simulation Time:                 177.246986seconds
   System Clock:                    1.000000GHz
   Transistor Latency:              1ns
   Runtime:                         10932 cycles
   Runtime:                         10.932000 us
   Stalls:                          1 cycles
   Executed Nodes:                  10930 cycles

********************************************************************************
   ========= Performance Analysis =================
   Setup Time:                      6296074914.000000ns
   Simulation Time:                 177246985703.000000ns
   System Clock:                    1.000000GHz
   Transistor Latency:              0ns
   Runtime:                         10932 cycles
   Runtime:                         0.000001 seconds
   Stalls:                          1 cycles
       Load Only:                   0 cycles
       Store Only:                  1 cycles
       Compute Only:                0 cycles
       Compute & Store:             0 cycles
       Load & Store:                0 cycles
       Load & Compute:              0 cycles
       Load & Compute & Store:      0 cycles
   Executed Nodes:                  10930 cycles
       Load Only:                   0 cycles
       Store Only:                  4 cycles
       Compute Only:                1 cycles
       Compute & Store:             21 cycles
       Load & Store:                0 cycles
       Load & Compute:              6 cycles
       Load & Compute & Store:      10898 cycles

   ========= Runtime FU's ========= (Max | Avg) ===
   Counter FU's:                      32 | 0.046838
   Integer Add/Sub FU's:               0 | 0.000000
   Integer Mul/Div FU's:               0 | 0.000000
   Integer Shifter FU's:               0 | 0.000000
   Integer Bitwise FU's:               1 | 0.000091
   Floating Point Float Add/Sub:       0 | 0.000000
   Floating Point Double Add/Sub:      0 | 0.000000
   Floating Point Float Mul/Div:      34 | 0.044252
   Floating Point Double Mul/Div:      0 | 0.000000
   0 Cycle Compare FU's:             102 | 0.046945
   GEP Instruction FU's:              96 | 0.046835
   Type Conversion FU's:               7 | 0.006782

   ========= Static FU's ==========================
   Counter FU's:                    0
   Integer Add/Sub FU's:            0
   Integer Mul/Div FU's:            0
   Integer Shifter FU's:            0
   Integer Bitwise FU's:            0
   Floating Point Float Add/Sub:    0
   Floating Point Double Add/Sub:   0
   Floating Point Float Mul/Div:    0
   Floating Point Double Mul/Div:   0
   0 Cycle Compare FU's:            0
   GEP Instruction FU's:            0
   Type Conversion FU's:            0
   Other:                           0

   ========= Pipeline Register Usage =============
   Total Number of Registers:       5641
   Max Register Usage Per Cycle:    137
   Avg Register Usage Per Cycle:    12.130992
   Avg Register Size (Bytes):       5.980606

   ========= Memory Configuration =================
   Cache Bus Ports:                 0
   Shared Cache Size:               0kB
   Local Bus Ports:                 0
   Private SPM Size:                256kB
   Private Read Ports:              0
   Private Write Ports:             0
   Private Read Bus Width:          64
   Private Write Bus Width:         64
       Memory Reads:                0
       Memory Writes:               0
   ========= Power Analysis ======================
   FU Leakage Power:                0.045377 mW 
   FU Dynamic Power:                0.142576 mW 
   FU Total Power:                  0.187953 mW 

   Registers Leakage Power:          0.005281 mW 
   Registers Dynamic Power:          0.015326 mW 
       Register Reads (Bits):        132616
       Register Writes (Bits):       133658
   Registers Total Power:            0.020607 mW

   SPM Leakage Power:               0.104100 mW
   SPM Read Dynamic Power:          2.785289 mW
   SPM Write Dynamic Power:         2.457440 mW
   SPM Total Power:                 5.346829 mW

   Cache Leakage Power:             0.000000 mW
   Cache Read Dynamic Power:        0.000000 mW
   Cache Write Dynamic Power:       0.000000 mW
   Cache Total Power:               0.000000 mW

   Accelerator Power:               0.208559 mW
   Accelerator Power (SPM):         5.555389 mW
   Accelerator Power (Cache):       0.208559 mW

   ========= Area Analysis =======================
   FU Area:                         5472.068359 um^2 (0.005472 mm^2)
   Register Area:                   429.271088 um^2 (0.000429 mm^2)
   SPM Area:                        2177.365505 um^2 (0.002177 mm^2)
   Cache Area:                      0.000000 um^2 (0.000000 mm^2)

   Accelerator Area:                5901.339355 um^2 (0.005901 mm^2)
   Accelerator Area (SPM):          8078.704860 um^2 (0.008079 mm^2)
   Accelerator Area (Cache):        5901.339355 um^2 (0.005901 mm^2)

   ========= SPM Resizing  =======================
   SPM Optimized Leakage Power:     0.004248 mW
   SPM Opt Area:                    178.524902 um^2

1586648125: global: Timer #0 started at tick 1586648125
1586816250: global: Timer #2 started at tick 1586816250
1586891875: global: Timer #2 stopped at tick 1586891875. Duration: 75625
1600074500: system.acctest.elem_matrix0_dma: SRC:0x0000000024020020, DST:0x0000000082069900, LEN:65536
1600420625: global: Timer #0 stopped at tick 1600420625. Duration: 13772500
1600435000: global: Number of accelerators running = 2
1606364500: system.acctest.elem_matrix0_dma: Transfer completed in 6.29 us
1606438125: global: Timer #0 started at tick 1606438125
1606607500: global: DAG ID = 0
1606621250: global: Node ID = 5
1606640625: global: Node deadline difference = -13221
1606653125: global: Predicted memory time / byte = 0 us/byte
1606665625: global: Predicted memory time = 0 us
1606678125: global: Predicted memory time / byte = 0 us/byte
1606690625: global: Predicted memory time = 0 us
1606703125: global: Predicted memory time / byte = 0 us/byte
1606715625: global: Predicted memory time = 0 us
1606728125: global: Predicted memory time / byte = 0 us/byte
1606740625: global: Predicted memory time = 0 us
1606834375: global: Timer #0 stopped at tick 1606834375. Duration: 396250
1606848750: global: Number of accelerators running = 1
********************************************************************************
system.acctest.convolution0.compute
   ========= Performance Analysis =============
   Setup Time:                      0.758757seconds
   Simulation Time:                 491.482036seconds
   System Clock:                    1.000000GHz
   Transistor Latency:              1ns
   Runtime:                         1545612 cycles
   Runtime:                         1545.612000 us
   Stalls:                          3 cycles
   Executed Nodes:                  1545608 cycles

********************************************************************************
   ========= Performance Analysis =================
   Setup Time:                      758757104.000000ns
   Simulation Time:                 491482035726.000000ns
   System Clock:                    1.000000GHz
   Transistor Latency:              0ns
   Runtime:                         1545612 cycles
   Runtime:                         0.000155 seconds
   Stalls:                          3 cycles
       Load Only:                   0 cycles
       Store Only:                  1 cycles
       Compute Only:                2 cycles
       Compute & Store:             0 cycles
       Load & Store:                0 cycles
       Load & Compute:              0 cycles
       Load & Compute & Store:      0 cycles
   Executed Nodes:                  1545608 cycles
       Load Only:                   0 cycles
       Store Only:                  1 cycles
       Compute Only:                1142524 cycles
       Compute & Store:             1127 cycles
       Load & Store:                0 cycles
       Load & Compute:              386700 cycles
       Load & Compute & Store:      15256 cycles

   ========= Runtime FU's ========= (Max | Avg) ===
   Counter FU's:                       3 | 0.112298
   Integer Add/Sub FU's:               4 | 0.211563
   Integer Mul/Div FU's:               1 | 0.052505
   Integer Shifter FU's:              10 | 0.005268
   Integer Bitwise FU's:               2 | 0.184265
   Floating Point Float Add/Sub:       5 | 0.195738
   Floating Point Double Add/Sub:      0 | 0.000000
   Floating Point Float Mul/Div:       2 | 0.130033
   Floating Point Double Mul/Div:      0 | 0.000000
   0 Cycle Compare FU's:              40 | 0.144068
   GEP Instruction FU's:               2 | 0.265363
   Type Conversion FU's:              11 | 0.138856

   ========= Static FU's ==========================
   Counter FU's:                    0
   Integer Add/Sub FU's:            0
   Integer Mul/Div FU's:            0
   Integer Shifter FU's:            0
   Integer Bitwise FU's:            0
   Floating Point Float Add/Sub:    0
   Floating Point Double Add/Sub:   0
   Floating Point Float Mul/Div:    0
   Floating Point Double Mul/Div:   0
   0 Cycle Compare FU's:            0
   GEP Instruction FU's:            0
   Type Conversion FU's:            0
   Other:                           0

   ========= Pipeline Register Usage =============
   Total Number of Registers:       1702
   Max Register Usage Per Cycle:    20
   Avg Register Usage Per Cycle:    6.401172
   Avg Register Size (Bytes):       5.569403

   ========= Memory Configuration =================
   Cache Bus Ports:                 0
   Shared Cache Size:               0kB
   Local Bus Ports:                 0
   Private SPM Size:                192kB
   Private Read Ports:              0
   Private Write Ports:             0
   Private Read Bus Width:          64
   Private Write Bus Width:         64
       Memory Reads:                0
       Memory Writes:               0
   ========= Power Analysis ======================
   FU Leakage Power:                0.196912 mW 
   FU Dynamic Power:                2658.054443 mW 
   FU Total Power:                  2658.251465 mW 

   Registers Leakage Power:          0.002459 mW 
   Registers Dynamic Power:          75.875725 mW 
       Register Reads (Bits):        9893728
       Register Writes (Bits):       10131647
   Registers Total Power:            75.878181 mW

   SPM Leakage Power:               0.078311 mW
   SPM Read Dynamic Power:          14.889326 mW
   SPM Write Dynamic Power:         2.457440 mW
   SPM Total Power:                 17.425076 mW

   Cache Leakage Power:             0.000000 mW
   Cache Read Dynamic Power:        0.000000 mW
   Cache Write Dynamic Power:       0.000000 mW
   Cache Total Power:               0.000000 mW

   Accelerator Power:               2734.129639 mW
   Accelerator Power (SPM):         2751.554715 mW
   Accelerator Power (Cache):       2734.129639 mW

   ========= Area Analysis =======================
   FU Area:                         22931.867188 um^2 (0.022932 mm^2)
   Register Area:                   199.878082 um^2 (0.000200 mm^2)
   SPM Area:                        1748.188735 um^2 (0.001748 mm^2)
   Cache Area:                      0.000000 um^2 (0.000000 mm^2)

   Accelerator Area:                23131.746094 um^2 (0.023132 mm^2)
   Accelerator Area (SPM):          24879.934829 um^2 (0.024880 mm^2)
   Accelerator Area (Cache):        23131.746094 um^2 (0.023132 mm^2)

   ========= SPM Resizing  =======================
   SPM Optimized Leakage Power:     0.002053 mW
   SPM Opt Area:                    145.024971 um^2

3065331875: global: Timer #0 started at tick 3065331875
3078707375: system.acctest.convolution0_dma: SRC:0x0000000022010020, DST:0x0000000082089900, LEN:65536
3079053750: global: Timer #0 stopped at tick 3079053750. Duration: 13721875
3079068125: global: Number of accelerators running = 1
3084990375: system.acctest.convolution0_dma: Transfer completed in 6.283 us
3085064375: global: Timer #0 started at tick 3085064375
3085232500: global: DAG ID = 0
3085246250: global: Node ID = 7
3085265625: global: Node deadline difference = -13277
3085278125: global: Predicted memory time / byte = 0 us/byte
3085290625: global: Predicted memory time = 0 us
3085303125: global: Predicted memory time / byte = 0 us/byte
3085315625: global: Predicted memory time = 0 us
3085328125: global: Predicted memory time / byte = 0 us/byte
3085340625: global: Predicted memory time = 0 us
3085353125: global: Predicted memory time / byte = 0 us/byte
3085365625: global: Predicted memory time = 0 us
3098703750: system.acctest.convolution0_dma: SRC:0x0000000082079900, DST:0x0000000022000020, LEN:65536
3098936250: global: Timer #0 stopped at tick 3098936250. Duration: 13871875
3098950625: global: Number of accelerators running = 1
3110701750: system.acctest.convolution0_dma: Transfer completed in 11.998 us
3110820625: global: Timer #0 started at tick 3110820625
3111698750: system.acctest.convolution0_dma: SRC:0x00000000820b9900, DST:0x0000000022030020, LEN:100
3111812750: system.acctest.convolution0_dma: Transfer completed in 0.114 us
3111928125: global: Timer #0 stopped at tick 3111928125. Duration: 1107500
3111942500: global: Number of accelerators running = 1
3112048125: global: Timer #0 started at tick 3112048125
3113353750: global: Timer #0 stopped at tick 3113353750. Duration: 1305625
3113368125: global: Number of accelerators running = 1
********************************************************************************
system.acctest.convolution0.compute
   ========= Performance Analysis =============
   Setup Time:                      0.525131seconds
   Simulation Time:                 211.783680seconds
   System Clock:                    1.000000GHz
   Transistor Latency:              1ns
   Runtime:                         1545612 cycles
   Runtime:                         1545.612000 us
   Stalls:                          3 cycles
   Executed Nodes:                  1545608 cycles

********************************************************************************
   ========= Performance Analysis =================
   Setup Time:                      525131165.000000ns
   Simulation Time:                 211783680338.000000ns
   System Clock:                    1.000000GHz
   Transistor Latency:              0ns
   Runtime:                         1545612 cycles
   Runtime:                         0.000155 seconds
   Stalls:                          3 cycles
       Load Only:                   0 cycles
       Store Only:                  1 cycles
       Compute Only:                2 cycles
       Compute & Store:             0 cycles
       Load & Store:                0 cycles
       Load & Compute:              0 cycles
       Load & Compute & Store:      0 cycles
   Executed Nodes:                  1545608 cycles
       Load Only:                   0 cycles
       Store Only:                  1 cycles
       Compute Only:                1142524 cycles
       Compute & Store:             1127 cycles
       Load & Store:                0 cycles
       Load & Compute:              386700 cycles
       Load & Compute & Store:      15256 cycles

   ========= Runtime FU's ========= (Max | Avg) ===
   Counter FU's:                       3 | 0.112298
   Integer Add/Sub FU's:               4 | 0.211563
   Integer Mul/Div FU's:               1 | 0.052505
   Integer Shifter FU's:              10 | 0.005268
   Integer Bitwise FU's:               2 | 0.184265
   Floating Point Float Add/Sub:       5 | 0.195738
   Floating Point Double Add/Sub:      0 | 0.000000
   Floating Point Float Mul/Div:       2 | 0.130033
   Floating Point Double Mul/Div:      0 | 0.000000
   0 Cycle Compare FU's:              40 | 0.144068
   GEP Instruction FU's:               2 | 0.265363
   Type Conversion FU's:              11 | 0.138856

   ========= Static FU's ==========================
   Counter FU's:                    0
   Integer Add/Sub FU's:            0
   Integer Mul/Div FU's:            0
   Integer Shifter FU's:            0
   Integer Bitwise FU's:            0
   Floating Point Float Add/Sub:    0
   Floating Point Double Add/Sub:   0
   Floating Point Float Mul/Div:    0
   Floating Point Double Mul/Div:   0
   0 Cycle Compare FU's:            0
   GEP Instruction FU's:            0
   Type Conversion FU's:            0
   Other:                           0

   ========= Pipeline Register Usage =============
   Total Number of Registers:       1702
   Max Register Usage Per Cycle:    20
   Avg Register Usage Per Cycle:    6.401172
   Avg Register Size (Bytes):       5.569403

   ========= Memory Configuration =================
   Cache Bus Ports:                 0
   Shared Cache Size:               0kB
   Local Bus Ports:                 0
   Private SPM Size:                192kB
   Private Read Ports:              0
   Private Write Ports:             0
   Private Read Bus Width:          64
   Private Write Bus Width:         64
       Memory Reads:                0
       Memory Writes:               0
   ========= Power Analysis ======================
   FU Leakage Power:                0.196912 mW 
   FU Dynamic Power:                2658.054443 mW 
   FU Total Power:                  2658.251465 mW 

   Registers Leakage Power:          0.002459 mW 
   Registers Dynamic Power:          75.875725 mW 
       Register Reads (Bits):        9893728
       Register Writes (Bits):       10131647
   Registers Total Power:            75.878181 mW

   SPM Leakage Power:               0.078311 mW
   SPM Read Dynamic Power:          18.794546 mW
   SPM Write Dynamic Power:         2.880682 mW
   SPM Total Power:                 21.753539 mW

   Cache Leakage Power:             0.000000 mW
   Cache Read Dynamic Power:        0.000000 mW
   Cache Write Dynamic Power:       0.000000 mW
   Cache Total Power:               0.000000 mW

   Accelerator Power:               2734.129639 mW
   Accelerator Power (SPM):         2755.883177 mW
   Accelerator Power (Cache):       2734.129639 mW

   ========= Area Analysis =======================
   FU Area:                         22931.867188 um^2 (0.022932 mm^2)
   Register Area:                   199.878082 um^2 (0.000200 mm^2)
   SPM Area:                        1748.188735 um^2 (0.001748 mm^2)
   Cache Area:                      0.000000 um^2 (0.000000 mm^2)

   Accelerator Area:                23131.746094 um^2 (0.023132 mm^2)
   Accelerator Area (SPM):          24879.934829 um^2 (0.024880 mm^2)
   Accelerator Area (Cache):        23131.746094 um^2 (0.023132 mm^2)

   ========= SPM Resizing  =======================
   SPM Optimized Leakage Power:     0.002053 mW
   SPM Opt Area:                    145.024971 um^2

4658828125: global: Timer #0 started at tick 4658828125
4658996250: global: Timer #2 started at tick 4658996250
4659028125: global: Timer #2 stopped at tick 4659028125. Duration: 31875
4659053125: global: Timer #2 started at tick 4659053125
4659111875: global: Timer #2 stopped at tick 4659111875. Duration: 58750
4672347375: system.acctest.convolution0_dma: SRC:0x0000000022010020, DST:0x00000000820a9900, LEN:65536
4679084375: system.acctest.convolution0_dma: Transfer completed in 6.737 us
4686480875: system.acctest.elem_matrix0_dma: SRC:0x0000000082089900, DST:0x0000000024000020, LEN:65536
4686695000: global: Timer #0 stopped at tick 4686695000. Duration: 27866875
4686709375: global: Number of accelerators running = 2
4686815625: global: Timer #0 started at tick 4686815625
4686988750: global: DAG ID = 0
4687002500: global: Node ID = 9
4687021875: global: Node deadline difference = -11676
4687034375: global: Predicted memory time / byte = 0 us/byte
4687046875: global: Predicted memory time = 0 us
4687059375: global: Predicted memory time / byte = 0 us/byte
4687071875: global: Predicted memory time = 0 us
4687084375: global: Predicted memory time / byte = 0 us/byte
4687096875: global: Predicted memory time = 0 us
4687109375: global: Predicted memory time / byte = 0 us/byte
4687121875: global: Predicted memory time = 0 us
4698480875: system.acctest.elem_matrix0_dma: Transfer completed in 12 us
4700582375: system.acctest.convolution0_dma: SRC:0x0000000082069900, DST:0x0000000022000020, LEN:65536
4700821875: global: Timer #0 stopped at tick 4700821875. Duration: 14006250
4700836250: global: Number of accelerators running = 2
4700998125: global: Timer #0 started at tick 4700998125
4701892375: system.acctest.elem_matrix0_dma: SRC:0x0000000022010020, DST:0x0000000024010020, LEN:65536
4702139375: global: Timer #0 stopped at tick 4702139375. Duration: 1141250
4702153750: global: Number of accelerators running = 2
4713297375: system.acctest.convolution0_dma: Transfer completed in 12.715 us
4713381875: global: Timer #0 started at tick 4713381875
4714284000: system.acctest.convolution0_dma: SRC:0x00000000820b9900, DST:0x0000000022030020, LEN:100
4714409000: system.acctest.convolution0_dma: Transfer completed in 0.125 us
4714509375: global: Timer #0 stopped at tick 4714509375. Duration: 1127500
4714523750: global: Number of accelerators running = 2
4714630625: global: Timer #0 started at tick 4714630625
4715958125: global: Timer #0 stopped at tick 4715958125. Duration: 1327500
4715972500: global: Number of accelerators running = 2
4718742375: system.acctest.elem_matrix0_dma: Transfer completed in 16.85 us
4718826875: global: Timer #0 started at tick 4718826875
4720195625: global: Timer #0 stopped at tick 4720195625. Duration: 1368750
4720210000: global: Number of accelerators running = 2
********************************************************************************
system.acctest.elem_matrix0.compute
   ========= Performance Analysis =============
   Setup Time:                      4.229278seconds
   Simulation Time:                 149.540740seconds
   System Clock:                    1.000000GHz
   Transistor Latency:              1ns
   Runtime:                         10932 cycles
   Runtime:                         10.932000 us
   Stalls:                          0 cycles
   Executed Nodes:                  10931 cycles

********************************************************************************
   ========= Performance Analysis =================
   Setup Time:                      4229277854.000000ns
   Simulation Time:                 149540739852.000000ns
   System Clock:                    1.000000GHz
   Transistor Latency:              0ns
   Runtime:                         10932 cycles
   Runtime:                         0.000001 seconds
   Stalls:                          0 cycles
       Load Only:                   0 cycles
       Store Only:                  0 cycles
       Compute Only:                0 cycles
       Compute & Store:             0 cycles
       Load & Store:                0 cycles
       Load & Compute:              0 cycles
       Load & Compute & Store:      0 cycles
   Executed Nodes:                  10931 cycles
       Load Only:                   0 cycles
       Store Only:                  5 cycles
       Compute Only:                1 cycles
       Compute & Store:             21 cycles
       Load & Store:                0 cycles
       Load & Compute:              7 cycles
       Load & Compute & Store:      10897 cycles

   ========= Runtime FU's ========= (Max | Avg) ===
   Counter FU's:                      32 | 0.046838
   Integer Add/Sub FU's:               0 | 0.000000
   Integer Mul/Div FU's:               0 | 0.000000
   Integer Shifter FU's:               0 | 0.000000
   Integer Bitwise FU's:               1 | 0.000091
   Floating Point Float Add/Sub:      34 | 0.044252
   Floating Point Double Add/Sub:      0 | 0.000000
   Floating Point Float Mul/Div:       0 | 0.000000
   Floating Point Double Mul/Div:      0 | 0.000000
   0 Cycle Compare FU's:             102 | 0.046974
   GEP Instruction FU's:              96 | 0.046835
   Type Conversion FU's:               7 | 0.006782

   ========= Static FU's ==========================
   Counter FU's:                    0
   Integer Add/Sub FU's:            0
   Integer Mul/Div FU's:            0
   Integer Shifter FU's:            0
   Integer Bitwise FU's:            0
   Floating Point Float Add/Sub:    0
   Floating Point Double Add/Sub:   0
   Floating Point Float Mul/Div:    0
   Floating Point Double Mul/Div:   0
   0 Cycle Compare FU's:            0
   GEP Instruction FU's:            0
   Type Conversion FU's:            0
   Other:                           0

   ========= Pipeline Register Usage =============
   Total Number of Registers:       5641
   Max Register Usage Per Cycle:    138
   Avg Register Usage Per Cycle:    12.130992
   Avg Register Size (Bytes):       5.980606

   ========= Memory Configuration =================
   Cache Bus Ports:                 0
   Shared Cache Size:               0kB
   Local Bus Ports:                 0
   Private SPM Size:                256kB
   Private Read Ports:              0
   Private Write Ports:             0
   Private Read Bus Width:          64
   Private Write Bus Width:         64
       Memory Reads:                0
       Memory Writes:               0
   ========= Power Analysis ======================
   FU Leakage Power:                0.519269 mW 
   FU Dynamic Power:                0.154621 mW 
   FU Total Power:                  0.673890 mW 

   Registers Leakage Power:          0.005281 mW 
   Registers Dynamic Power:          0.015326 mW 
       Register Reads (Bits):        132616
       Register Writes (Bits):       133658
   Registers Total Power:            0.020607 mW

   SPM Leakage Power:               0.104100 mW
   SPM Read Dynamic Power:          3.776796 mW
   SPM Write Dynamic Power:         2.880682 mW
   SPM Total Power:                 6.761578 mW

   Cache Leakage Power:             0.000000 mW
   Cache Read Dynamic Power:        0.000000 mW
   Cache Write Dynamic Power:       0.000000 mW
   Cache Total Power:               0.000000 mW

   Accelerator Power:               0.694497 mW
   Accelerator Power (SPM):         7.456075 mW
   Accelerator Power (Cache):       0.694497 mW

   ========= Area Analysis =======================
   FU Area:                         70212.562500 um^2 (0.070213 mm^2)
   Register Area:                   429.271088 um^2 (0.000429 mm^2)
   SPM Area:                        2177.365505 um^2 (0.002177 mm^2)
   Cache Area:                      0.000000 um^2 (0.000000 mm^2)

   Accelerator Area:                70641.835938 um^2 (0.070642 mm^2)
   Accelerator Area (SPM):          72819.201442 um^2 (0.072819 mm^2)
   Accelerator Area (Cache):        70641.835938 um^2 (0.070642 mm^2)

   ========= SPM Resizing  =======================
   SPM Optimized Leakage Power:     0.004248 mW
   SPM Opt Area:                    178.524902 um^2

4730960625: global: Timer #0 started at tick 4730960625
4731200625: global: Timer #2 started at tick 4731200625
4731271875: global: Timer #2 stopped at tick 4731271875. Duration: 71250
4744473750: system.acctest.elem_matrix0_dma: SRC:0x0000000024020020, DST:0x00000000820ea340, LEN:65536
4744828750: global: Timer #0 stopped at tick 4744828750. Duration: 13868125
4744843125: global: Number of accelerators running = 2
4750764750: system.acctest.elem_matrix0_dma: Transfer completed in 6.291 us
4750838125: global: Timer #0 started at tick 4750838125
4751007500: global: DAG ID = 0
4751021250: global: Node ID = 12
4751040625: global: Node deadline difference = -11669
4751053125: global: Predicted memory time / byte = 0 us/byte
4751065625: global: Predicted memory time = 0 us
4751078125: global: Predicted memory time / byte = 0 us/byte
4751090625: global: Predicted memory time = 0 us
4751103125: global: Predicted memory time / byte = 0 us/byte
4751115625: global: Predicted memory time = 0 us
4751128125: global: Predicted memory time / byte = 0 us/byte
4751140625: global: Predicted memory time = 0 us
4764549500: system.acctest.elem_matrix0_dma: SRC:0x0000000082089900, DST:0x0000000024000020, LEN:65536
4764763750: global: Timer #0 stopped at tick 4764763750. Duration: 13925625
4764778125: global: Number of accelerators running = 2
4776521500: system.acctest.elem_matrix0_dma: Transfer completed in 11.972 us
4776595625: global: Timer #0 started at tick 4776595625
4789937375: system.acctest.elem_matrix0_dma: SRC:0x00000000820a9900, DST:0x0000000024010020, LEN:65536
4790157500: global: Timer #0 stopped at tick 4790157500. Duration: 13561875
4790171875: global: Number of accelerators running = 2
4801910375: system.acctest.elem_matrix0_dma: Transfer completed in 11.973 us
4801984375: global: Timer #0 started at tick 4801984375
4803325625: global: Timer #0 stopped at tick 4803325625. Duration: 1341250
4803340000: global: Number of accelerators running = 2
********************************************************************************
system.acctest.elem_matrix0.compute
   ========= Performance Analysis =============
   Setup Time:                      6.573800seconds
   Simulation Time:                 164.099036seconds
   System Clock:                    1.000000GHz
   Transistor Latency:              1ns
   Runtime:                         10932 cycles
   Runtime:                         10.932000 us
   Stalls:                          1 cycles
   Executed Nodes:                  10930 cycles

********************************************************************************
   ========= Performance Analysis =================
   Setup Time:                      6573799652.000000ns
   Simulation Time:                 164099035626.000000ns
   System Clock:                    1.000000GHz
   Transistor Latency:              0ns
   Runtime:                         10932 cycles
   Runtime:                         0.000001 seconds
   Stalls:                          1 cycles
       Load Only:                   0 cycles
       Store Only:                  1 cycles
       Compute Only:                0 cycles
       Compute & Store:             0 cycles
       Load & Store:                0 cycles
       Load & Compute:              0 cycles
       Load & Compute & Store:      0 cycles
   Executed Nodes:                  10930 cycles
       Load Only:                   0 cycles
       Store Only:                  4 cycles
       Compute Only:                1 cycles
       Compute & Store:             21 cycles
       Load & Store:                0 cycles
       Load & Compute:              6 cycles
       Load & Compute & Store:      10898 cycles

   ========= Runtime FU's ========= (Max | Avg) ===
   Counter FU's:                      32 | 0.046838
   Integer Add/Sub FU's:               0 | 0.000000
   Integer Mul/Div FU's:               0 | 0.000000
   Integer Shifter FU's:               0 | 0.000000
   Integer Bitwise FU's:               1 | 0.000091
   Floating Point Float Add/Sub:       0 | 0.000000
   Floating Point Double Add/Sub:      0 | 0.000000
   Floating Point Float Mul/Div:      34 | 0.044252
   Floating Point Double Mul/Div:      0 | 0.000000
   0 Cycle Compare FU's:             102 | 0.046945
   GEP Instruction FU's:              96 | 0.046835
   Type Conversion FU's:               7 | 0.006782

   ========= Static FU's ==========================
   Counter FU's:                    0
   Integer Add/Sub FU's:            0
   Integer Mul/Div FU's:            0
   Integer Shifter FU's:            0
   Integer Bitwise FU's:            0
   Floating Point Float Add/Sub:    0
   Floating Point Double Add/Sub:   0
   Floating Point Float Mul/Div:    0
   Floating Point Double Mul/Div:   0
   0 Cycle Compare FU's:            0
   GEP Instruction FU's:            0
   Type Conversion FU's:            0
   Other:                           0

   ========= Pipeline Register Usage =============
   Total Number of Registers:       5641
   Max Register Usage Per Cycle:    137
   Avg Register Usage Per Cycle:    12.130992
   Avg Register Size (Bytes):       5.980606

   ========= Memory Configuration =================
   Cache Bus Ports:                 0
   Shared Cache Size:               0kB
   Local Bus Ports:                 0
   Private SPM Size:                256kB
   Private Read Ports:              0
   Private Write Ports:             0
   Private Read Bus Width:          64
   Private Write Bus Width:         64
       Memory Reads:                0
       Memory Writes:               0
   ========= Power Analysis ======================
   FU Leakage Power:                0.045377 mW 
   FU Dynamic Power:                0.142576 mW 
   FU Total Power:                  0.187953 mW 

   Registers Leakage Power:          0.005281 mW 
   Registers Dynamic Power:          0.015326 mW 
       Register Reads (Bits):        132616
       Register Writes (Bits):       133658
   Registers Total Power:            0.020607 mW

   SPM Leakage Power:               0.104100 mW
   SPM Read Dynamic Power:          4.579344 mW
   SPM Write Dynamic Power:         3.448926 mW
   SPM Total Power:                 8.132371 mW

   Cache Leakage Power:             0.000000 mW
   Cache Read Dynamic Power:        0.000000 mW
   Cache Write Dynamic Power:       0.000000 mW
   Cache Total Power:               0.000000 mW

   Accelerator Power:               0.208559 mW
   Accelerator Power (SPM):         8.340930 mW
   Accelerator Power (Cache):       0.208559 mW

   ========= Area Analysis =======================
   FU Area:                         5472.068359 um^2 (0.005472 mm^2)
   Register Area:                   429.271088 um^2 (0.000429 mm^2)
   SPM Area:                        2177.365505 um^2 (0.002177 mm^2)
   Cache Area:                      0.000000 um^2 (0.000000 mm^2)

   Accelerator Area:                5901.339355 um^2 (0.005901 mm^2)
   Accelerator Area (SPM):          8078.704860 um^2 (0.008079 mm^2)
   Accelerator Area (Cache):        5901.339355 um^2 (0.005901 mm^2)

   ========= SPM Resizing  =======================
   SPM Optimized Leakage Power:     0.004248 mW
   SPM Opt Area:                    178.524902 um^2

4814115625: global: Timer #0 started at tick 4814115625
4827460875: system.acctest.elem_matrix0_dma: SRC:0x0000000024020020, DST:0x00000000820ba340, LEN:65536
4827810000: global: Timer #0 stopped at tick 4827810000. Duration: 13694375
4827824375: global: Number of accelerators running = 2
4833808875: system.acctest.elem_matrix0_dma: Transfer completed in 6.348 us
4833883125: global: Timer #0 started at tick 4833883125
4834052500: global: DAG ID = 0
4834066250: global: Node ID = 10
4834085625: global: Node deadline difference = -11609
4834098125: global: Predicted memory time / byte = 0 us/byte
4834110625: global: Predicted memory time = 0 us
4834123125: global: Predicted memory time / byte = 0 us/byte
4834135625: global: Predicted memory time = 0 us
4834148125: global: Predicted memory time / byte = 0 us/byte
4834160625: global: Predicted memory time = 0 us
4834173125: global: Predicted memory time / byte = 0 us/byte
4834185625: global: Predicted memory time = 0 us
4847567375: system.acctest.elem_matrix0_dma: SRC:0x00000000820ea340, DST:0x0000000024000020, LEN:65536
4847779375: global: Timer #0 stopped at tick 4847779375. Duration: 13896250
[...]
6308815625: global: Timer #0 started at tick 6308815625
6310248750: global: Timer #0 stopped at tick 6310248750. Duration: 1433125
6310263125: global: Number of accelerators running = 1
********************************************************************************
system.acctest.elem_matrix0.compute
   ========= Performance Analysis =============
   Setup Time:                      7.445959seconds
   Simulation Time:                 174.796309seconds
   System Clock:                    1.000000GHz
   Transistor Latency:              1ns
   Runtime:                         10932 cycles
   Runtime:                         10.932000 us
   Stalls:                          0 cycles
   Executed Nodes:                  10931 cycles

********************************************************************************
   ========= Performance Analysis =================
   Setup Time:                      7445958586.000000ns
   Simulation Time:                 174796309209.000000ns
   System Clock:                    1.000000GHz
   Transistor Latency:              0ns
   Runtime:                         10932 cycles
   Runtime:                         0.000001 seconds
   Stalls:                          0 cycles
       Load Only:                   0 cycles
       Store Only:                  0 cycles
       Compute Only:                0 cycles
       Compute & Store:             0 cycles
       Load & Store:                0 cycles
       Load & Compute:              0 cycles
       Load & Compute & Store:      0 cycles
   Executed Nodes:                  10931 cycles
       Load Only:                   0 cycles
       Store Only:                  5 cycles
       Compute Only:                1 cycles
       Compute & Store:             21 cycles
       Load & Store:                0 cycles
       Load & Compute:              7 cycles
       Load & Compute & Store:      10897 cycles

   ========= Runtime FU's ========= (Max | Avg) ===
   Counter FU's:                      32 | 0.046838
   Integer Add/Sub FU's:               0 | 0.000000
   Integer Mul/Div FU's:               0 | 0.000000
   Integer Shifter FU's:               0 | 0.000000
   Integer Bitwise FU's:               1 | 0.000091
   Floating Point Float Add/Sub:      34 | 0.044252
   Floating Point Double Add/Sub:      0 | 0.000000
   Floating Point Float Mul/Div:       0 | 0.000000
   Floating Point Double Mul/Div:      0 | 0.000000
   0 Cycle Compare FU's:             102 | 0.046974
   GEP Instruction FU's:              96 | 0.046835
   Type Conversion FU's:               7 | 0.006782

   ========= Static FU's ==========================
   Counter FU's:                    0
   Integer Add/Sub FU's:            0
   Integer Mul/Div FU's:            0
   Integer Shifter FU's:            0
   Integer Bitwise FU's:            0
   Floating Point Float Add/Sub:    0
   Floating Point Double Add/Sub:   0
   Floating Point Float Mul/Div:    0
   Floating Point Double Mul/Div:   0
   0 Cycle Compare FU's:            0
   GEP Instruction FU's:            0
   Type Conversion FU's:            0
   Other:                           0

   ========= Pipeline Register Usage =============
   Total Number of Registers:       5641
   Max Register Usage Per Cycle:    138
   Avg Register Usage Per Cycle:    12.130992
   Avg Register Size (Bytes):       5.980606

   ========= Memory Configuration =================
   Cache Bus Ports:                 0
   Shared Cache Size:               0kB
   Local Bus Ports:                 0
   Private SPM Size:                256kB
   Private Read Ports:              0
   Private Write Ports:             0
   Private Read Bus Width:          64
   Private Write Bus Width:         64
       Memory Reads:                0
       Memory Writes:               0
   ========= Power Analysis ======================
   FU Leakage Power:                0.519269 mW 
   FU Dynamic Power:                0.154621 mW 
   FU Total Power:                  0.673890 mW 

   Registers Leakage Power:          0.005281 mW 
   Registers Dynamic Power:          0.015326 mW 
       Register Reads (Bits):        132616
       Register Writes (Bits):       133658
   Registers Total Power:            0.020607 mW

   SPM Leakage Power:               0.104100 mW
   SPM Read Dynamic Power:          5.606090 mW
   SPM Write Dynamic Power:         4.890273 mW
   SPM Total Power:                 10.600463 mW

   Cache Leakage Power:             0.000000 mW
   Cache Read Dynamic Power:        0.000000 mW
   Cache Write Dynamic Power:       0.000000 mW
   Cache Total Power:               0.000000 mW

   Accelerator Power:               0.694497 mW
   Accelerator Power (SPM):         11.294960 mW
   Accelerator Power (Cache):       0.694497 mW

   ========= Area Analysis =======================
   FU Area:                         70212.562500 um^2 (0.070213 mm^2)
   Register Area:                   429.271088 um^2 (0.000429 mm^2)
   SPM Area:                        2177.365505 um^2 (0.002177 mm^2)
   Cache Area:                      0.000000 um^2 (0.000000 mm^2)

   Accelerator Area:                70641.835938 um^2 (0.070642 mm^2)
   Accelerator Area (SPM):          72819.201442 um^2 (0.072819 mm^2)
   Accelerator Area (Cache):        70641.835938 um^2 (0.070642 mm^2)

   ========= SPM Resizing  =======================
   SPM Optimized Leakage Power:     0.004248 mW
   SPM Opt Area:                    178.524902 um^2

6321045625: global: Timer #0 started at tick 6321045625
6321214375: global: Timer #2 started at tick 6321214375
6321246250: global: Timer #2 stopped at tick 6321246250. Duration: 31875
6321493125: global: DAG ID = 0
6321506875: global: Node ID = 13
6321520000: global: Node deadline difference = -10179
6321532500: global: Predicted memory time / byte = 0 us/byte
6321545000: global: Predicted memory time = 0 us
6321557500: global: Predicted memory time / byte = 0 us/byte
6321570000: global: Predicted memory time = 0 us
6321582500: global: Predicted memory time / byte = 0 us/byte
6321595000: global: Predicted memory time = 0 us
6321607500: global: Predicted memory time / byte = 0 us/byte
6321620000: global: Predicted memory time = 0 us
6335015875: system.acctest.elem_matrix0_dma: SRC:0x000000008210a380, DST:0x0000000024000020, LEN:65536
6335228750: global: Timer #0 stopped at tick 6335228750. Duration: 14183125
6335243125: global: Number of accelerators running = 1
6346942875: system.acctest.elem_matrix0_dma: Transfer completed in 11.927 us
6347017500: global: Timer #0 started at tick 6347017500
6348395000: global: Timer #0 stopped at tick 6348395000. Duration: 1377500
6348409375: global: Number of accelerators running = 1
********************************************************************************
system.acctest.elem_matrix0.compute
   ========= Performance Analysis =============
   Setup Time:                      7.071545seconds
   Simulation Time:                 153.097854seconds
   System Clock:                    1.000000GHz
   Transistor Latency:              1ns
   Runtime:                         10932 cycles
   Runtime:                         10.932000 us
   Stalls:                          0 cycles
   Executed Nodes:                  10931 cycles

********************************************************************************
   ========= Performance Analysis =================
   Setup Time:                      7071545064.000000ns
   Simulation Time:                 153097854229.000000ns
   System Clock:                    1.000000GHz
   Transistor Latency:              0ns
   Runtime:                         10932 cycles
   Runtime:                         0.000001 seconds
   Stalls:                          0 cycles
       Load Only:                   0 cycles
       Store Only:                  0 cycles
       Compute Only:                0 cycles
       Compute & Store:             0 cycles
       Load & Store:                0 cycles
       Load & Compute:              0 cycles
       Load & Compute & Store:      0 cycles
   Executed Nodes:                  10931 cycles
       Load Only:                   0 cycles
       Store Only:                  5 cycles
       Compute Only:                1 cycles
       Compute & Store:             21 cycles
       Load & Store:                0 cycles
       Load & Compute:              7 cycles
       Load & Compute & Store:      10897 cycles

   ========= Runtime FU's ========= (Max | Avg) ===
   Counter FU's:                      32 | 0.046838
   Integer Add/Sub FU's:               0 | 0.000000
   Integer Mul/Div FU's:               0 | 0.000000
   Integer Shifter FU's:               0 | 0.000000
   Integer Bitwise FU's:               1 | 0.000091
   Floating Point Float Add/Sub:      34 | 0.044252
   Floating Point Double Add/Sub:      0 | 0.000000
   Floating Point Float Mul/Div:       0 | 0.000000
   Floating Point Double Mul/Div:      0 | 0.000000
   0 Cycle Compare FU's:             102 | 0.046974
   GEP Instruction FU's:              96 | 0.046835
   Type Conversion FU's:               7 | 0.006782

   ========= Static FU's ==========================
   Counter FU's:                    0
   Integer Add/Sub FU's:            0
   Integer Mul/Div FU's:            0
   Integer Shifter FU's:            0
   Integer Bitwise FU's:            0
   Floating Point Float Add/Sub:    0
   Floating Point Double Add/Sub:   0
   Floating Point Float Mul/Div:    0
   Floating Point Double Mul/Div:   0
   0 Cycle Compare FU's:            0
   GEP Instruction FU's:            0
   Type Conversion FU's:            0
   Other:                           0

   ========= Pipeline Register Usage =============
   Total Number of Registers:       5641
   Max Register Usage Per Cycle:    138
   Avg Register Usage Per Cycle:    12.130992
   Avg Register Size (Bytes):       5.980606

   ========= Memory Configuration =================
   Cache Bus Ports:                 0
   Shared Cache Size:               0kB
   Local Bus Ports:                 0
   Private SPM Size:                256kB
   Private Read Ports:              0
   Private Write Ports:             0
   Private Read Bus Width:          64
   Private Write Bus Width:         64
       Memory Reads:                0
       Memory Writes:               0
   ========= Power Analysis ======================
   FU Leakage Power:                0.519269 mW 
   FU Dynamic Power:                0.154621 mW 
   FU Total Power:                  0.673890 mW 

   Registers Leakage Power:          0.005281 mW 
   Registers Dynamic Power:          0.015326 mW 
       Register Reads (Bits):        132616
       Register Writes (Bits):       133658
   Registers Total Power:            0.020607 mW

   SPM Leakage Power:               0.104100 mW
   SPM Read Dynamic Power:          6.015807 mW
   SPM Write Dynamic Power:         5.103456 mW
   SPM Total Power:                 11.223364 mW

   Cache Leakage Power:             0.000000 mW
   Cache Read Dynamic Power:        0.000000 mW
   Cache Write Dynamic Power:       0.000000 mW
   Cache Total Power:               0.000000 mW

   Accelerator Power:               0.694497 mW
   Accelerator Power (SPM):         11.917861 mW
   Accelerator Power (Cache):       0.694497 mW

   ========= Area Analysis =======================
   FU Area:                         70212.562500 um^2 (0.070213 mm^2)
   Register Area:                   429.271088 um^2 (0.000429 mm^2)
   SPM Area:                        2177.365505 um^2 (0.002177 mm^2)
   Cache Area:                      0.000000 um^2 (0.000000 mm^2)

   Accelerator Area:                70641.835938 um^2 (0.070642 mm^2)
   Accelerator Area (SPM):          72819.201442 um^2 (0.072819 mm^2)
   Accelerator Area (Cache):        70641.835938 um^2 (0.070642 mm^2)

   ========= SPM Resizing  =======================
   SPM Optimized Leakage Power:     0.004248 mW
   SPM Opt Area:                    178.524902 um^2

6359175625: global: Timer #0 started at tick 6359175625
6359338125: global: Timer #2 started at tick 6359338125
6359370625: global: Timer #2 stopped at tick 6359370625. Duration: 32500
6359613750: global: DAG ID = 0
6359627500: global: Node ID = 16
6359640625: global: Node deadline difference = -10198
6359653125: global: Predicted memory time / byte = 0 us/byte
6359665625: global: Predicted memory time = 0 us
6359678125: global: Predicted memory time / byte = 0 us/byte
6359690625: global: Predicted memory time = 0 us
6359703125: global: Predicted memory time / byte = 0 us/byte
6359715625: global: Predicted memory time = 0 us
6359728125: global: Predicted memory time / byte = 0 us/byte
6359740625: global: Predicted memory time = 0 us
6360756625: system.acctest.harris_non_max0_dma: SRC:0x0000000024010020, DST:0x0000000026000020, LEN:65536
6361008125: global: Timer #0 stopped at tick 6361008125. Duration: 1832500
6361022500: global: Number of accelerators running = 1
6371017625: system.acctest.harris_non_max0_dma: Transfer completed in 10.261 us
6371202500: global: Timer #0 started at tick 6371202500
6372087500: global: Timer #0 stopped at tick 6372087500. Duration: 885000
6372101875: global: Number of accelerators running = 1
********************************************************************************
system.acctest.harris_non_max0.compute
   ========= Performance Analysis =============
   Setup Time:                      0.008254seconds
   Simulation Time:                 3.544740seconds
   System Clock:                    1.000000GHz
   Transistor Latency:              1ns
   Runtime:                         105010 cycles
   Runtime:                         105.010000 us
   Stalls:                          0 cycles
   Executed Nodes:                  105009 cycles

********************************************************************************
   ========= Performance Analysis =================
   Setup Time:                      8254334.000000ns
   Simulation Time:                 3544739748.000000ns
   System Clock:                    1.000000GHz
   Transistor Latency:              0ns
   Runtime:                         105010 cycles
   Runtime:                         0.000011 seconds
   Stalls:                          0 cycles
       Load Only:                   0 cycles
       Store Only:                  0 cycles
       Compute Only:                0 cycles
       Compute & Store:             0 cycles
       Load & Store:                0 cycles
       Load & Compute:              0 cycles
       Load & Compute & Store:      0 cycles
   Executed Nodes:                  105009 cycles
       Load Only:                   0 cycles
       Store Only:                  0 cycles
       Compute Only:                72241 cycles
       Compute & Store:             16384 cycles
       Load & Store:                0 cycles
       Load & Compute:              16384 cycles
       Load & Compute & Store:      0 cycles

   ========= Runtime FU's ========= (Max | Avg) ===
   Counter FU's:                       2 | 0.167889
   Integer Add/Sub FU's:               2 | 0.261670
   Integer Mul/Div FU's:               0 | 0.000000
   Integer Shifter FU's:               3 | 0.018017
   Integer Bitwise FU's:               1 | 0.472964
   Floating Point Float Add/Sub:       0 | 0.000000
   Floating Point Double Add/Sub:      0 | 0.000000
   Floating Point Float Mul/Div:       0 | 0.000000
   Floating Point Double Mul/Div:      0 | 0.000000
   0 Cycle Compare FU's:              26 | 0.199329
   GEP Instruction FU's:               3 | 0.208571
   Type Conversion FU's:              14 | 0.062158

   ========= Static FU's ==========================
   Counter FU's:                    0
   Integer Add/Sub FU's:            0
   Integer Mul/Div FU's:            0
   Integer Shifter FU's:            0
   Integer Bitwise FU's:            0
   Floating Point Float Add/Sub:    0
   Floating Point Double Add/Sub:   0
   Floating Point Float Mul/Div:    0
   Floating Point Double Mul/Div:   0
   0 Cycle Compare FU's:            0
   GEP Instruction FU's:            0
   Type Conversion FU's:            0
   Other:                           0

   ========= Pipeline Register Usage =============
   Total Number of Registers:       146
   Max Register Usage Per Cycle:    20
   Avg Register Usage Per Cycle:    5.029864
   Avg Register Size (Bytes):       5.546762

   ========= Memory Configuration =================
   Cache Bus Ports:                 0
   Shared Cache Size:               0kB
   Local Bus Ports:                 0
   Private SPM Size:                192kB
   Private Read Ports:              0
   Private Write Ports:             0
   Private Read Bus Width:          64
   Private Write Bus Width:         64
       Memory Reads:                0
       Memory Writes:               0
   ========= Power Analysis ======================
   FU Leakage Power:                0.010458 mW 
   FU Dynamic Power:                2.202634 mW 
   FU Total Power:                  2.213092 mW 

   Registers Leakage Power:          0.002041 mW 
   Registers Dynamic Power:          0.236415 mW 
       Register Reads (Bits):        528188
       Register Writes (Bits):       578368
   Registers Total Power:            0.238456 mW

   SPM Leakage Power:               0.068382 mW
   SPM Read Dynamic Power:          0.522209 mW
   SPM Write Dynamic Power:         0.561696 mW
   SPM Total Power:                 1.152287 mW

   Cache Leakage Power:             0.000000 mW
   Cache Read Dynamic Power:        0.000000 mW
   Cache Write Dynamic Power:       0.000000 mW
   Cache Total Power:               0.000000 mW

   Accelerator Power:               2.451548 mW
   Accelerator Power (SPM):         3.603836 mW
   Accelerator Power (Cache):       2.451548 mW

   ========= Area Analysis =======================
   FU Area:                         799.308228 um^2 (0.000799 mm^2)
   Register Area:                   165.887924 um^2 (0.000166 mm^2)
   SPM Area:                        1011.904012 um^2 (0.001012 mm^2)
   Cache Area:                      0.000000 um^2 (0.000000 mm^2)

   Accelerator Area:                965.196167 um^2 (0.000965 mm^2)
   Accelerator Area (SPM):          1977.100179 um^2 (0.001977 mm^2)
   Accelerator Area (Cache):        965.196167 um^2 (0.000965 mm^2)

   ========= SPM Resizing  =======================
   SPM Optimized Leakage Power:     0.001770 mW
   SPM Opt Area:                    77.453784 um^2

6476940625: global: Timer #0 started at tick 6476940625
6480932375: system.acctest.harris_non_max0_dma: SRC:0x0000000026010020, DST:0x000000008212a500, LEN:16384
6481285000: global: Timer #0 stopped at tick 6481285000. Duration: 4344375
6481299375: global: Number of accelerators running = 1
6482564375: system.acctest.harris_non_max0_dma: Transfer completed in 1.632 us
6482638125: global: Timer #0 started at tick 6482638125
6482812500: global: DAG ID = 0
6482826250: global: Node ID = 17
6482856875: global: DAG execution time = 6467
6482875000: global: DAG deadline difference = -10200
6482893750: global: Node deadline difference = -10200
6482906250: global: Predicted memory time / byte = 0 us/byte
6482918750: global: Predicted memory time = 0 us
6482931250: global: Predicted memory time / byte = 0 us/byte
6482943750: global: Predicted memory time = 0 us
6482956250: global: Predicted memory time / byte = 0 us/byte
6482968750: global: Predicted memory time = 0 us
6482981250: global: Predicted memory time / byte = 0 us/byte
6482993750: global: Predicted memory time = 0 us
6483088125: global: Timer #0 stopped at tick 6483088125. Duration: 450000
6483102500: global: Number of accelerators running = 0
6483178750: global: Number of forwards = 10
6483237500: global: Number of colocations = 3
6483256875: global: Number of DAG deadlines met = 1
6483276875: global: Number of node deadlines met = 18
6483358750: global: Total predicted compute time = 0 us
Exiting @ tick 6483526250 because m5_exit instruction encountered
