
---------- Begin Simulation Statistics ----------
final_tick                               104642906802                       # Number of ticks from beginning of simulation (restored from checkpoints and never reset)
host_inst_rate                                  93911                       # Simulator instruction rate (inst/s)
host_mem_usage                                4613840                       # Number of bytes of host memory used
host_op_rate                                   114527                       # Simulator op (including micro ops) rate (op/s)
host_seconds                                  4244.59                       # Real time elapsed on the host
host_tick_rate                               24653222                       # Simulator tick rate (ticks/s)
sim_freq                                 1000000000000                       # Frequency of simulated ticks
sim_insts                                   398615331                       # Number of instructions simulated
sim_ops                                     486122272                       # Number of ops (including micro ops) simulated
sim_seconds                                  0.104643                       # Number of seconds simulated
sim_ticks                                104642906802                       # Number of ticks simulated
system.cpu_cluster.cpus.branchPred.BTBCorrect            0                       # Number of correct BTB predictions (this stat may not work properly.
system.cpu_cluster.cpus.branchPred.BTBHitPct    95.547254                       # BTB Hit Percentage
system.cpu_cluster.cpus.branchPred.BTBHits     18540402                       # Number of BTB hits
system.cpu_cluster.cpus.branchPred.BTBLookups     19404432                       # Number of BTB lookups
system.cpu_cluster.cpus.branchPred.RASInCorrect           13                       # Number of incorrect RAS predictions.
system.cpu_cluster.cpus.branchPred.condIncorrect      2303154                       # Number of conditional branches incorrect
system.cpu_cluster.cpus.branchPred.condPredicted     54531508                       # Number of conditional branches predicted
system.cpu_cluster.cpus.branchPred.indirectHits        62454                       # Number of indirect target hits.
system.cpu_cluster.cpus.branchPred.indirectLookups        66933                       # Number of indirect predictor lookups.
system.cpu_cluster.cpus.branchPred.indirectMisses         4479                       # Number of indirect misses.
system.cpu_cluster.cpus.branchPred.lookups     61577762                       # Number of BP lookups
system.cpu_cluster.cpus.branchPred.usedRAS      2942808                       # Number of times the RAS was used to get a target.
system.cpu_cluster.cpus.branchPredindirectMispredicted         1819                       # Number of mispredicted indirect branches.
system.cpu_cluster.cpus.cc_regfile_reads    155674425                       # number of cc regfile reads
system.cpu_cluster.cpus.cc_regfile_writes    156460545                       # number of cc regfile writes
system.cpu_cluster.cpus.commit.amos              7002                       # Number of atomic instructions committed
system.cpu_cluster.cpus.commit.branchMispredicts      2288737                       # The number of times a branch was mispredicted
system.cpu_cluster.cpus.commit.branches      50295136                       # Number of branches committed
system.cpu_cluster.cpus.commit.bw_lim_events     13628315                       # number cycles where commit BW limit reached
system.cpu_cluster.cpus.commit.commitNonSpecStalls        47353                       # The number of times commit has been forced to stall to communicate backwards
system.cpu_cluster.cpus.commit.commitSquashedInsts     44268126                       # The number of squashed insts skipped by commit
system.cpu_cluster.cpus.commit.committedInsts    398636641                       # Number of instructions committed
system.cpu_cluster.cpus.commit.committedOps    486143582                       # Number of ops (including micro ops) committed
system.cpu_cluster.cpus.commit.committed_per_cycle::samples    286029340                       # Number of insts commited each cycle
system.cpu_cluster.cpus.commit.committed_per_cycle::mean     1.699628                       # Number of insts commited each cycle
system.cpu_cluster.cpus.commit.committed_per_cycle::stdev     2.141367                       # Number of insts commited each cycle
system.cpu_cluster.cpus.commit.committed_per_cycle::underflows            0      0.00%      0.00% # Number of insts commited each cycle
system.cpu_cluster.cpus.commit.committed_per_cycle::0    103610887     36.22%     36.22% # Number of insts commited each cycle
system.cpu_cluster.cpus.commit.committed_per_cycle::1     79209740     27.69%     63.92% # Number of insts commited each cycle
system.cpu_cluster.cpus.commit.committed_per_cycle::2     39520892     13.82%     77.73% # Number of insts commited each cycle
system.cpu_cluster.cpus.commit.committed_per_cycle::3     14117723      4.94%     82.67% # Number of insts commited each cycle
system.cpu_cluster.cpus.commit.committed_per_cycle::4     15338753      5.36%     88.03% # Number of insts commited each cycle
system.cpu_cluster.cpus.commit.committed_per_cycle::5     12066743      4.22%     92.25% # Number of insts commited each cycle
system.cpu_cluster.cpus.commit.committed_per_cycle::6      4930367      1.72%     93.97% # Number of insts commited each cycle
system.cpu_cluster.cpus.commit.committed_per_cycle::7      3605920      1.26%     95.24% # Number of insts commited each cycle
system.cpu_cluster.cpus.commit.committed_per_cycle::8     13628315      4.76%    100.00% # Number of insts commited each cycle
system.cpu_cluster.cpus.commit.committed_per_cycle::overflows            0      0.00%    100.00% # Number of insts commited each cycle
system.cpu_cluster.cpus.commit.committed_per_cycle::min_value            0                       # Number of insts commited each cycle
system.cpu_cluster.cpus.commit.committed_per_cycle::max_value            8                       # Number of insts commited each cycle
system.cpu_cluster.cpus.commit.committed_per_cycle::total    286029340                       # Number of insts commited each cycle
system.cpu_cluster.cpus.commit.fp_insts             0                       # Number of committed floating point instructions.
system.cpu_cluster.cpus.commit.function_calls      2365706                       # Number of function calls committed.
system.cpu_cluster.cpus.commit.int_insts    441402735                       # Number of committed integer instructions.
system.cpu_cluster.cpus.commit.loads        118039098                       # Number of loads committed
system.cpu_cluster.cpus.commit.membars           7027                       # Number of memory barriers committed
system.cpu_cluster.cpus.commit.op_class_0::No_OpClass        43408      0.01%      0.01% # Class of committed instruction
system.cpu_cluster.cpus.commit.op_class_0::IntAlu    298190405     61.34%     61.35% # Class of committed instruction
system.cpu_cluster.cpus.commit.op_class_0::IntMult        18173      0.00%     61.35% # Class of committed instruction
system.cpu_cluster.cpus.commit.op_class_0::IntDiv           35      0.00%     61.35% # Class of committed instruction
system.cpu_cluster.cpus.commit.op_class_0::FloatAdd         2088      0.00%     61.35% # Class of committed instruction
system.cpu_cluster.cpus.commit.op_class_0::FloatCmp           12      0.00%     61.35% # Class of committed instruction
system.cpu_cluster.cpus.commit.op_class_0::FloatCvt         2089      0.00%     61.35% # Class of committed instruction
system.cpu_cluster.cpus.commit.op_class_0::FloatMult            0      0.00%     61.35% # Class of committed instruction
system.cpu_cluster.cpus.commit.op_class_0::FloatMultAcc            0      0.00%     61.35% # Class of committed instruction
system.cpu_cluster.cpus.commit.op_class_0::FloatDiv         2091      0.00%     61.35% # Class of committed instruction
system.cpu_cluster.cpus.commit.op_class_0::FloatMisc         9197      0.00%     61.35% # Class of committed instruction
system.cpu_cluster.cpus.commit.op_class_0::FloatSqrt            0      0.00%     61.35% # Class of committed instruction
system.cpu_cluster.cpus.commit.op_class_0::SimdAdd         8292      0.00%     61.36% # Class of committed instruction
system.cpu_cluster.cpus.commit.op_class_0::SimdAddAcc            0      0.00%     61.36% # Class of committed instruction
system.cpu_cluster.cpus.commit.op_class_0::SimdAlu         8311      0.00%     61.36% # Class of committed instruction
system.cpu_cluster.cpus.commit.op_class_0::SimdCmp         9230      0.00%     61.36% # Class of committed instruction
system.cpu_cluster.cpus.commit.op_class_0::SimdCvt            2      0.00%     61.36% # Class of committed instruction
system.cpu_cluster.cpus.commit.op_class_0::SimdMisc       160246      0.03%     61.39% # Class of committed instruction
system.cpu_cluster.cpus.commit.op_class_0::SimdMult            0      0.00%     61.39% # Class of committed instruction
system.cpu_cluster.cpus.commit.op_class_0::SimdMultAcc            0      0.00%     61.39% # Class of committed instruction
system.cpu_cluster.cpus.commit.op_class_0::SimdShift            2      0.00%     61.39% # Class of committed instruction
system.cpu_cluster.cpus.commit.op_class_0::SimdShiftAcc            0      0.00%     61.39% # Class of committed instruction
system.cpu_cluster.cpus.commit.op_class_0::SimdDiv            0      0.00%     61.39% # Class of committed instruction
system.cpu_cluster.cpus.commit.op_class_0::SimdSqrt            0      0.00%     61.39% # Class of committed instruction
system.cpu_cluster.cpus.commit.op_class_0::SimdFloatAdd            0      0.00%     61.39% # Class of committed instruction
system.cpu_cluster.cpus.commit.op_class_0::SimdFloatAlu            0      0.00%     61.39% # Class of committed instruction
system.cpu_cluster.cpus.commit.op_class_0::SimdFloatCmp            0      0.00%     61.39% # Class of committed instruction
system.cpu_cluster.cpus.commit.op_class_0::SimdFloatCvt            0      0.00%     61.39% # Class of committed instruction
system.cpu_cluster.cpus.commit.op_class_0::SimdFloatDiv            0      0.00%     61.39% # Class of committed instruction
system.cpu_cluster.cpus.commit.op_class_0::SimdFloatMisc            0      0.00%     61.39% # Class of committed instruction
system.cpu_cluster.cpus.commit.op_class_0::SimdFloatMult            0      0.00%     61.39% # Class of committed instruction
system.cpu_cluster.cpus.commit.op_class_0::SimdFloatMultAcc            0      0.00%     61.39% # Class of committed instruction
system.cpu_cluster.cpus.commit.op_class_0::SimdFloatSqrt            0      0.00%     61.39% # Class of committed instruction
system.cpu_cluster.cpus.commit.op_class_0::SimdReduceAdd            0      0.00%     61.39% # Class of committed instruction
system.cpu_cluster.cpus.commit.op_class_0::SimdReduceAlu            0      0.00%     61.39% # Class of committed instruction
system.cpu_cluster.cpus.commit.op_class_0::SimdReduceCmp            0      0.00%     61.39% # Class of committed instruction
system.cpu_cluster.cpus.commit.op_class_0::SimdFloatReduceAdd            0      0.00%     61.39% # Class of committed instruction
system.cpu_cluster.cpus.commit.op_class_0::SimdFloatReduceCmp            0      0.00%     61.39% # Class of committed instruction
system.cpu_cluster.cpus.commit.op_class_0::SimdAes            0      0.00%     61.39% # Class of committed instruction
system.cpu_cluster.cpus.commit.op_class_0::SimdAesMix            0      0.00%     61.39% # Class of committed instruction
system.cpu_cluster.cpus.commit.op_class_0::SimdSha1Hash            0      0.00%     61.39% # Class of committed instruction
system.cpu_cluster.cpus.commit.op_class_0::SimdSha1Hash2            0      0.00%     61.39% # Class of committed instruction
system.cpu_cluster.cpus.commit.op_class_0::SimdSha256Hash            0      0.00%     61.39% # Class of committed instruction
system.cpu_cluster.cpus.commit.op_class_0::SimdSha256Hash2            0      0.00%     61.39% # Class of committed instruction
system.cpu_cluster.cpus.commit.op_class_0::SimdShaSigma2            0      0.00%     61.39% # Class of committed instruction
system.cpu_cluster.cpus.commit.op_class_0::SimdShaSigma3            0      0.00%     61.39% # Class of committed instruction
system.cpu_cluster.cpus.commit.op_class_0::SimdPredAlu            0      0.00%     61.39% # Class of committed instruction
system.cpu_cluster.cpus.commit.op_class_0::MemRead    118039098     24.28%     85.67% # Class of committed instruction
system.cpu_cluster.cpus.commit.op_class_0::MemWrite     69650903     14.33%    100.00% # Class of committed instruction
system.cpu_cluster.cpus.commit.op_class_0::FloatMemRead            0      0.00%    100.00% # Class of committed instruction
system.cpu_cluster.cpus.commit.op_class_0::FloatMemWrite            0      0.00%    100.00% # Class of committed instruction
system.cpu_cluster.cpus.commit.op_class_0::IprAccess            0      0.00%    100.00% # Class of committed instruction
system.cpu_cluster.cpus.commit.op_class_0::InstPrefetch            0      0.00%    100.00% # Class of committed instruction
system.cpu_cluster.cpus.commit.op_class_0::total    486143582                       # Class of committed instruction
system.cpu_cluster.cpus.commit.refs         187690001                       # Number of memory references committed
system.cpu_cluster.cpus.commit.swp_count            0                       # Number of s/w prefetches committed
system.cpu_cluster.cpus.commit.vec_insts       520506                       # Number of committed Vector instructions.
system.cpu_cluster.cpus.committedInsts      398615331                       # Number of Instructions Simulated
system.cpu_cluster.cpus.committedOps        486122272                       # Number of Ops (including micro ops) Simulated
system.cpu_cluster.cpus.cpi                  0.735339                       # CPI: Cycles Per Instruction
system.cpu_cluster.cpus.cpi_total            0.735339                       # CPI: Total CPI of All Threads
system.cpu_cluster.cpus.decode.BlockedCycles     53693506                       # Number of cycles decode is blocked
system.cpu_cluster.cpus.decode.BranchMispred        14498                       # Number of times decode detected a branch misprediction
system.cpu_cluster.cpus.decode.BranchResolved     17144481                       # Number of times decode resolved a branch
system.cpu_cluster.cpus.decode.DecodedInsts    549438881                       # Number of instructions handled by decode
system.cpu_cluster.cpus.decode.IdleCycles     27231532                       # Number of cycles decode is idle
system.cpu_cluster.cpus.decode.RunCycles    179666304                       # Number of cycles decode is running
system.cpu_cluster.cpus.decode.SquashCycles      2294546                       # Number of cycles decode is squashing
system.cpu_cluster.cpus.decode.SquashedInsts     10810476                       # Number of squashed instructions handled by decode
system.cpu_cluster.cpus.decode.UnblockCycles     30014746                       # Number of cycles decode is unblocking
system.cpu_cluster.cpus.dtb.accesses                0                       # DTB accesses
system.cpu_cluster.cpus.dtb.align_faults            0                       # Number of TLB faults due to alignment restrictions
system.cpu_cluster.cpus.dtb.domain_faults            0                       # Number of TLB faults due to domain restrictions
system.cpu_cluster.cpus.dtb.flush_entries            0                       # Number of entries that have been flushed from TLB
system.cpu_cluster.cpus.dtb.flush_tlb               0                       # Number of times complete TLB was flushed
system.cpu_cluster.cpus.dtb.flush_tlb_asid            0                       # Number of times TLB was flushed by ASID
system.cpu_cluster.cpus.dtb.flush_tlb_mva            0                       # Number of times TLB was flushed by MVA
system.cpu_cluster.cpus.dtb.flush_tlb_mva_asid            0                       # Number of times TLB was flushed by MVA & ASID
system.cpu_cluster.cpus.dtb.hits                    0                       # DTB hits
system.cpu_cluster.cpus.dtb.inst_accesses            0                       # ITB inst accesses
system.cpu_cluster.cpus.dtb.inst_hits               0                       # ITB inst hits
system.cpu_cluster.cpus.dtb.inst_misses             0                       # ITB inst misses
system.cpu_cluster.cpus.dtb.misses                  0                       # DTB misses
system.cpu_cluster.cpus.dtb.perms_faults            0                       # Number of TLB faults due to permissions restrictions
system.cpu_cluster.cpus.dtb.prefetch_faults            0                       # Number of TLB faults due to prefetch
system.cpu_cluster.cpus.dtb.read_accesses            0                       # DTB read accesses
system.cpu_cluster.cpus.dtb.read_hits               0                       # DTB read hits
system.cpu_cluster.cpus.dtb.read_misses             0                       # DTB read misses
system.cpu_cluster.cpus.dtb.stage2_mmu.stage2_tlb.accesses            0                       # DTB accesses
system.cpu_cluster.cpus.dtb.stage2_mmu.stage2_tlb.align_faults            0                       # Number of TLB faults due to alignment restrictions
system.cpu_cluster.cpus.dtb.stage2_mmu.stage2_tlb.domain_faults            0                       # Number of TLB faults due to domain restrictions
system.cpu_cluster.cpus.dtb.stage2_mmu.stage2_tlb.flush_entries            0                       # Number of entries that have been flushed from TLB
system.cpu_cluster.cpus.dtb.stage2_mmu.stage2_tlb.flush_tlb            0                       # Number of times complete TLB was flushed
system.cpu_cluster.cpus.dtb.stage2_mmu.stage2_tlb.flush_tlb_asid            0                       # Number of times TLB was flushed by ASID
system.cpu_cluster.cpus.dtb.stage2_mmu.stage2_tlb.flush_tlb_mva            0                       # Number of times TLB was flushed by MVA
system.cpu_cluster.cpus.dtb.stage2_mmu.stage2_tlb.flush_tlb_mva_asid            0                       # Number of times TLB was flushed by MVA & ASID
system.cpu_cluster.cpus.dtb.stage2_mmu.stage2_tlb.hits            0                       # DTB hits
system.cpu_cluster.cpus.dtb.stage2_mmu.stage2_tlb.inst_accesses            0                       # ITB inst accesses
system.cpu_cluster.cpus.dtb.stage2_mmu.stage2_tlb.inst_hits            0                       # ITB inst hits
system.cpu_cluster.cpus.dtb.stage2_mmu.stage2_tlb.inst_misses            0                       # ITB inst misses
system.cpu_cluster.cpus.dtb.stage2_mmu.stage2_tlb.misses            0                       # DTB misses
system.cpu_cluster.cpus.dtb.stage2_mmu.stage2_tlb.perms_faults            0                       # Number of TLB faults due to permissions restrictions
system.cpu_cluster.cpus.dtb.stage2_mmu.stage2_tlb.prefetch_faults            0                       # Number of TLB faults due to prefetch
system.cpu_cluster.cpus.dtb.stage2_mmu.stage2_tlb.read_accesses            0                       # DTB read accesses
system.cpu_cluster.cpus.dtb.stage2_mmu.stage2_tlb.read_hits            0                       # DTB read hits
system.cpu_cluster.cpus.dtb.stage2_mmu.stage2_tlb.read_misses            0                       # DTB read misses
system.cpu_cluster.cpus.dtb.stage2_mmu.stage2_tlb.walker.walkRequestOrigin_Requested::Data            0                       # Table walker requests started/completed, data/inst
system.cpu_cluster.cpus.dtb.stage2_mmu.stage2_tlb.walker.walkRequestOrigin_Requested::Inst            0                       # Table walker requests started/completed, data/inst
system.cpu_cluster.cpus.dtb.stage2_mmu.stage2_tlb.walker.walkRequestOrigin_Requested::total            0                       # Table walker requests started/completed, data/inst
system.cpu_cluster.cpus.dtb.stage2_mmu.stage2_tlb.walker.walkRequestOrigin_Completed::Data            0                       # Table walker requests started/completed, data/inst
system.cpu_cluster.cpus.dtb.stage2_mmu.stage2_tlb.walker.walkRequestOrigin_Completed::Inst            0                       # Table walker requests started/completed, data/inst
system.cpu_cluster.cpus.dtb.stage2_mmu.stage2_tlb.walker.walkRequestOrigin_Completed::total            0                       # Table walker requests started/completed, data/inst
system.cpu_cluster.cpus.dtb.stage2_mmu.stage2_tlb.walker.walkRequestOrigin::total            0                       # Table walker requests started/completed, data/inst
system.cpu_cluster.cpus.dtb.stage2_mmu.stage2_tlb.walker.walks            0                       # Table walker walks requested
system.cpu_cluster.cpus.dtb.stage2_mmu.stage2_tlb.write_accesses            0                       # DTB write accesses
system.cpu_cluster.cpus.dtb.stage2_mmu.stage2_tlb.write_hits            0                       # DTB write hits
system.cpu_cluster.cpus.dtb.stage2_mmu.stage2_tlb.write_misses            0                       # DTB write misses
system.cpu_cluster.cpus.dtb.walker.walkRequestOrigin_Requested::Data            0                       # Table walker requests started/completed, data/inst
system.cpu_cluster.cpus.dtb.walker.walkRequestOrigin_Requested::Inst            0                       # Table walker requests started/completed, data/inst
system.cpu_cluster.cpus.dtb.walker.walkRequestOrigin_Requested::total            0                       # Table walker requests started/completed, data/inst
system.cpu_cluster.cpus.dtb.walker.walkRequestOrigin_Completed::Data            0                       # Table walker requests started/completed, data/inst
system.cpu_cluster.cpus.dtb.walker.walkRequestOrigin_Completed::Inst            0                       # Table walker requests started/completed, data/inst
system.cpu_cluster.cpus.dtb.walker.walkRequestOrigin_Completed::total            0                       # Table walker requests started/completed, data/inst
system.cpu_cluster.cpus.dtb.walker.walkRequestOrigin::total            0                       # Table walker requests started/completed, data/inst
system.cpu_cluster.cpus.dtb.walker.walks            0                       # Table walker walks requested
system.cpu_cluster.cpus.dtb.write_accesses            0                       # DTB write accesses
system.cpu_cluster.cpus.dtb.write_hits              0                       # DTB write hits
system.cpu_cluster.cpus.dtb.write_misses            0                       # DTB write misses
system.cpu_cluster.cpus.fetch.Branches       61577762                       # Number of branches that fetch encountered
system.cpu_cluster.cpus.fetch.CacheLines    140468367                       # Number of cache lines fetched
system.cpu_cluster.cpus.fetch.Cycles        287853690                       # Number of cycles fetch has run and was not squashing or blocked
system.cpu_cluster.cpus.fetch.IcacheSquashes         5389                       # Number of outstanding Icache misses that were squashed
system.cpu_cluster.cpus.fetch.IcacheWaitRetryStallCycles         2576                       # Number of stall cycles due to full MSHR
system.cpu_cluster.cpus.fetch.Insts         491078312                       # Number of instructions fetch has processed
system.cpu_cluster.cpus.fetch.MiscStallCycles         1511                       # Number of cycles fetch has spent waiting on interrupts, or bad addresses, or out of MSHRs
system.cpu_cluster.cpus.fetch.SquashCycles      4617926                       # Number of cycles fetch has spent squashing
system.cpu_cluster.cpus.fetch.branchRate     0.210079                       # Number of branch fetches per cycle
system.cpu_cluster.cpus.fetch.icacheStallCycles      2733894                       # Number of cycles fetch is stalled on an Icache miss
system.cpu_cluster.cpus.fetch.predictedBranches     21545664                       # Number of branches that fetch has predicted taken
system.cpu_cluster.cpus.fetch.rate           1.675364                       # Number of inst fetches per cycle
system.cpu_cluster.cpus.fetch.rateDist::samples    292900634                       # Number of instructions fetched each cycle (Total)
system.cpu_cluster.cpus.fetch.rateDist::mean     2.038530                       # Number of instructions fetched each cycle (Total)
system.cpu_cluster.cpus.fetch.rateDist::stdev     1.054520                       # Number of instructions fetched each cycle (Total)
system.cpu_cluster.cpus.fetch.rateDist::underflows            0      0.00%      0.00% # Number of instructions fetched each cycle (Total)
system.cpu_cluster.cpus.fetch.rateDist::0     23204357      7.92%      7.92% # Number of instructions fetched each cycle (Total)
system.cpu_cluster.cpus.fetch.rateDist::1     87816127     29.98%     37.90% # Number of instructions fetched each cycle (Total)
system.cpu_cluster.cpus.fetch.rateDist::2     36369772     12.42%     50.32% # Number of instructions fetched each cycle (Total)
system.cpu_cluster.cpus.fetch.rateDist::3    145510378     49.68%    100.00% # Number of instructions fetched each cycle (Total)
system.cpu_cluster.cpus.fetch.rateDist::overflows            0      0.00%    100.00% # Number of instructions fetched each cycle (Total)
system.cpu_cluster.cpus.fetch.rateDist::min_value            0                       # Number of instructions fetched each cycle (Total)
system.cpu_cluster.cpus.fetch.rateDist::max_value            3                       # Number of instructions fetched each cycle (Total)
system.cpu_cluster.cpus.fetch.rateDist::total    292900634                       # Number of instructions fetched each cycle (Total)
system.cpu_cluster.cpus.idleCycles             216753                       # Total number of cycles that the CPU has spent unscheduled due to idling
system.cpu_cluster.cpus.iew.branchMispredicts      2314398                       # Number of branch mispredicts detected at execute
system.cpu_cluster.cpus.iew.exec_branches     51510744                       # Number of branches executed
system.cpu_cluster.cpus.iew.exec_nop            24458                       # number of nop insts executed
system.cpu_cluster.cpus.iew.exec_rate        1.731387                       # Inst execution rate
system.cpu_cluster.cpus.iew.exec_refs       193549319                       # number of memory reference insts executed
system.cpu_cluster.cpus.iew.exec_stores      70483299                       # Number of stores executed
system.cpu_cluster.cpus.iew.exec_swp                0                       # number of swp insts executed
system.cpu_cluster.cpus.iew.iewBlockCycles      4646656                       # Number of cycles IEW is blocking
system.cpu_cluster.cpus.iew.iewDispLoadInsts    131804507                       # Number of dispatched load instructions
system.cpu_cluster.cpus.iew.iewDispNonSpecInsts        53712                       # Number of dispatched non-speculative instructions
system.cpu_cluster.cpus.iew.iewDispSquashedInsts            0                       # Number of squashed instructions skipped by dispatch
system.cpu_cluster.cpus.iew.iewDispStoreInsts     72237702                       # Number of dispatched store instructions
system.cpu_cluster.cpus.iew.iewDispatchedInsts    534454612                       # Number of instructions dispatched to IQ
system.cpu_cluster.cpus.iew.iewExecLoadInsts    123066020                       # Number of load instructions executed
system.cpu_cluster.cpus.iew.iewExecSquashedInsts      3364031                       # Number of squashed instructions skipped in execute
system.cpu_cluster.cpus.iew.iewExecutedInsts    507499700                       # Number of executed instructions
system.cpu_cluster.cpus.iew.iewIQFullEvents         5549                       # Number of times the IQ has become full, causing a stall
system.cpu_cluster.cpus.iew.iewIdleCycles            0                       # Number of cycles IEW is idle
system.cpu_cluster.cpus.iew.iewLSQFullEvents        35695                       # Number of times the LSQ has become full, causing a stall
system.cpu_cluster.cpus.iew.iewSquashCycles      2294546                       # Number of cycles IEW is squashing
system.cpu_cluster.cpus.iew.iewUnblockCycles        45238                       # Number of cycles IEW is unblocking
system.cpu_cluster.cpus.iew.lsq.thread0.blockedLoads            0                       # Number of blocked loads due to partial load-store forwarding
system.cpu_cluster.cpus.iew.lsq.thread0.cacheBlocked        20703                       # Number of times an access to memory failed due to the cache being blocked
system.cpu_cluster.cpus.iew.lsq.thread0.forwLoads      5450600                       # Number of loads that had data forwarded from stores
system.cpu_cluster.cpus.iew.lsq.thread0.ignoredResponses       114357                       # Number of memory responses ignored because the instruction is squashed
system.cpu_cluster.cpus.iew.lsq.thread0.invAddrLoads            0                       # Number of loads ignored due to an invalid address
system.cpu_cluster.cpus.iew.lsq.thread0.invAddrSwpfs            0                       # Number of software prefetches ignored due to an invalid address
system.cpu_cluster.cpus.iew.lsq.thread0.memOrderViolation         1894                       # Number of memory ordering violations
system.cpu_cluster.cpus.iew.lsq.thread0.rescheduledLoads       295702                       # Number of loads that were rescheduled
system.cpu_cluster.cpus.iew.lsq.thread0.squashedLoads     13765409                       # Number of loads squashed
system.cpu_cluster.cpus.iew.lsq.thread0.squashedStores      2586799                       # Number of stores squashed
system.cpu_cluster.cpus.iew.memOrderViolationEvents         1894                       # Number of memory order violations
system.cpu_cluster.cpus.iew.predictedNotTakenIncorrect      1249687                       # Number of branches that were predicted not taken incorrectly
system.cpu_cluster.cpus.iew.predictedTakenIncorrect      1064711                       # Number of branches that were predicted taken incorrectly
system.cpu_cluster.cpus.iew.wb_consumers    520972531                       # num instructions consuming a value
system.cpu_cluster.cpus.iew.wb_count        505569699                       # cumulative count of insts written-back
system.cpu_cluster.cpus.iew.wb_fanout        0.583169                       # average fanout of values written-back
system.cpu_cluster.cpus.iew.wb_producers    303814992                       # num instructions producing a value
system.cpu_cluster.cpus.iew.wb_rate          1.724803                       # insts written-back per cycle
system.cpu_cluster.cpus.iew.wb_sent         506346691                       # cumulative count of insts sent to commit
system.cpu_cluster.cpus.int_regfile_reads    654249607                       # number of integer regfile reads
system.cpu_cluster.cpus.int_regfile_writes    426427135                       # number of integer regfile writes
system.cpu_cluster.cpus.ipc                  1.359917                       # IPC: Instructions Per Cycle
system.cpu_cluster.cpus.ipc_total            1.359917                       # IPC: Total IPC of All Threads
system.cpu_cluster.cpus.iq.FU_type_0::No_OpClass        43413      0.01%      0.01% # Type of FU issued
system.cpu_cluster.cpus.iq.FU_type_0::IntAlu    315177794     61.70%     61.70% # Type of FU issued
system.cpu_cluster.cpus.iq.FU_type_0::IntMult        18511      0.00%     61.71% # Type of FU issued
system.cpu_cluster.cpus.iq.FU_type_0::IntDiv           47      0.00%     61.71% # Type of FU issued
system.cpu_cluster.cpus.iq.FU_type_0::FloatAdd         2088      0.00%     61.71% # Type of FU issued
system.cpu_cluster.cpus.iq.FU_type_0::FloatCmp           12      0.00%     61.71% # Type of FU issued
system.cpu_cluster.cpus.iq.FU_type_0::FloatCvt         2098      0.00%     61.71% # Type of FU issued
system.cpu_cluster.cpus.iq.FU_type_0::FloatMult            0      0.00%     61.71% # Type of FU issued
system.cpu_cluster.cpus.iq.FU_type_0::FloatMultAcc            0      0.00%     61.71% # Type of FU issued
system.cpu_cluster.cpus.iq.FU_type_0::FloatDiv         2091      0.00%     61.71% # Type of FU issued
system.cpu_cluster.cpus.iq.FU_type_0::FloatMisc         9230      0.00%     61.71% # Type of FU issued
system.cpu_cluster.cpus.iq.FU_type_0::FloatSqrt            0      0.00%     61.71% # Type of FU issued
system.cpu_cluster.cpus.iq.FU_type_0::SimdAdd         8319      0.00%     61.71% # Type of FU issued
system.cpu_cluster.cpus.iq.FU_type_0::SimdAddAcc            0      0.00%     61.71% # Type of FU issued
system.cpu_cluster.cpus.iq.FU_type_0::SimdAlu         8342      0.00%     61.71% # Type of FU issued
system.cpu_cluster.cpus.iq.FU_type_0::SimdCmp         9314      0.00%     61.72% # Type of FU issued
system.cpu_cluster.cpus.iq.FU_type_0::SimdCvt            2      0.00%     61.72% # Type of FU issued
system.cpu_cluster.cpus.iq.FU_type_0::SimdMisc       166352      0.03%     61.75% # Type of FU issued
system.cpu_cluster.cpus.iq.FU_type_0::SimdMult            0      0.00%     61.75% # Type of FU issued
system.cpu_cluster.cpus.iq.FU_type_0::SimdMultAcc            0      0.00%     61.75% # Type of FU issued
system.cpu_cluster.cpus.iq.FU_type_0::SimdShift            2      0.00%     61.75% # Type of FU issued
system.cpu_cluster.cpus.iq.FU_type_0::SimdShiftAcc            0      0.00%     61.75% # Type of FU issued
system.cpu_cluster.cpus.iq.FU_type_0::SimdDiv            0      0.00%     61.75% # Type of FU issued
system.cpu_cluster.cpus.iq.FU_type_0::SimdSqrt            0      0.00%     61.75% # Type of FU issued
system.cpu_cluster.cpus.iq.FU_type_0::SimdFloatAdd            0      0.00%     61.75% # Type of FU issued
system.cpu_cluster.cpus.iq.FU_type_0::SimdFloatAlu            0      0.00%     61.75% # Type of FU issued
system.cpu_cluster.cpus.iq.FU_type_0::SimdFloatCmp            0      0.00%     61.75% # Type of FU issued
system.cpu_cluster.cpus.iq.FU_type_0::SimdFloatCvt            0      0.00%     61.75% # Type of FU issued
system.cpu_cluster.cpus.iq.FU_type_0::SimdFloatDiv            0      0.00%     61.75% # Type of FU issued
system.cpu_cluster.cpus.iq.FU_type_0::SimdFloatMisc            0      0.00%     61.75% # Type of FU issued
system.cpu_cluster.cpus.iq.FU_type_0::SimdFloatMult            0      0.00%     61.75% # Type of FU issued
system.cpu_cluster.cpus.iq.FU_type_0::SimdFloatMultAcc            0      0.00%     61.75% # Type of FU issued
system.cpu_cluster.cpus.iq.FU_type_0::SimdFloatSqrt            0      0.00%     61.75% # Type of FU issued
system.cpu_cluster.cpus.iq.FU_type_0::SimdReduceAdd            0      0.00%     61.75% # Type of FU issued
system.cpu_cluster.cpus.iq.FU_type_0::SimdReduceAlu            0      0.00%     61.75% # Type of FU issued
system.cpu_cluster.cpus.iq.FU_type_0::SimdReduceCmp            0      0.00%     61.75% # Type of FU issued
system.cpu_cluster.cpus.iq.FU_type_0::SimdFloatReduceAdd            0      0.00%     61.75% # Type of FU issued
system.cpu_cluster.cpus.iq.FU_type_0::SimdFloatReduceCmp            0      0.00%     61.75% # Type of FU issued
system.cpu_cluster.cpus.iq.FU_type_0::SimdAes            0      0.00%     61.75% # Type of FU issued
system.cpu_cluster.cpus.iq.FU_type_0::SimdAesMix            0      0.00%     61.75% # Type of FU issued
system.cpu_cluster.cpus.iq.FU_type_0::SimdSha1Hash            0      0.00%     61.75% # Type of FU issued
system.cpu_cluster.cpus.iq.FU_type_0::SimdSha1Hash2            0      0.00%     61.75% # Type of FU issued
system.cpu_cluster.cpus.iq.FU_type_0::SimdSha256Hash            0      0.00%     61.75% # Type of FU issued
system.cpu_cluster.cpus.iq.FU_type_0::SimdSha256Hash2            0      0.00%     61.75% # Type of FU issued
system.cpu_cluster.cpus.iq.FU_type_0::SimdShaSigma2            0      0.00%     61.75% # Type of FU issued
system.cpu_cluster.cpus.iq.FU_type_0::SimdShaSigma3            0      0.00%     61.75% # Type of FU issued
system.cpu_cluster.cpus.iq.FU_type_0::SimdPredAlu            0      0.00%     61.75% # Type of FU issued
system.cpu_cluster.cpus.iq.FU_type_0::MemRead    124399411     24.35%     86.10% # Type of FU issued
system.cpu_cluster.cpus.iq.FU_type_0::MemWrite     71016705     13.90%    100.00% # Type of FU issued
system.cpu_cluster.cpus.iq.FU_type_0::FloatMemRead            0      0.00%    100.00% # Type of FU issued
system.cpu_cluster.cpus.iq.FU_type_0::FloatMemWrite            0      0.00%    100.00% # Type of FU issued
system.cpu_cluster.cpus.iq.FU_type_0::IprAccess            0      0.00%    100.00% # Type of FU issued
system.cpu_cluster.cpus.iq.FU_type_0::InstPrefetch            0      0.00%    100.00% # Type of FU issued
system.cpu_cluster.cpus.iq.FU_type_0::total    510863731                       # Type of FU issued
system.cpu_cluster.cpus.iq.fp_alu_accesses            0                       # Number of floating point alu accesses
system.cpu_cluster.cpus.iq.fp_inst_queue_reads            0                       # Number of floating instruction queue reads
system.cpu_cluster.cpus.iq.fp_inst_queue_wakeup_accesses            0                       # Number of floating instruction queue wakeup accesses
system.cpu_cluster.cpus.iq.fp_inst_queue_writes            0                       # Number of floating instruction queue writes
system.cpu_cluster.cpus.iq.fu_busy_cnt      150835712                       # FU busy when requested
system.cpu_cluster.cpus.iq.fu_busy_rate      0.295256                       # FU busy rate (busy events/executed inst)
system.cpu_cluster.cpus.iq.fu_full::No_OpClass            0      0.00%      0.00% # attempts to use FU when none available
system.cpu_cluster.cpus.iq.fu_full::IntAlu     56944056     37.75%     37.75% # attempts to use FU when none available
system.cpu_cluster.cpus.iq.fu_full::IntMult          106      0.00%     37.75% # attempts to use FU when none available
system.cpu_cluster.cpus.iq.fu_full::IntDiv            3      0.00%     37.75% # attempts to use FU when none available
system.cpu_cluster.cpus.iq.fu_full::FloatAdd            1      0.00%     37.75% # attempts to use FU when none available
system.cpu_cluster.cpus.iq.fu_full::FloatCmp            0      0.00%     37.75% # attempts to use FU when none available
system.cpu_cluster.cpus.iq.fu_full::FloatCvt            0      0.00%     37.75% # attempts to use FU when none available
system.cpu_cluster.cpus.iq.fu_full::FloatMult            0      0.00%     37.75% # attempts to use FU when none available
system.cpu_cluster.cpus.iq.fu_full::FloatMultAcc            0      0.00%     37.75% # attempts to use FU when none available
system.cpu_cluster.cpus.iq.fu_full::FloatDiv            0      0.00%     37.75% # attempts to use FU when none available
system.cpu_cluster.cpus.iq.fu_full::FloatMisc            4      0.00%     37.75% # attempts to use FU when none available
system.cpu_cluster.cpus.iq.fu_full::FloatSqrt            0      0.00%     37.75% # attempts to use FU when none available
system.cpu_cluster.cpus.iq.fu_full::SimdAdd            0      0.00%     37.75% # attempts to use FU when none available
system.cpu_cluster.cpus.iq.fu_full::SimdAddAcc            0      0.00%     37.75% # attempts to use FU when none available
system.cpu_cluster.cpus.iq.fu_full::SimdAlu            0      0.00%     37.75% # attempts to use FU when none available
system.cpu_cluster.cpus.iq.fu_full::SimdCmp            0      0.00%     37.75% # attempts to use FU when none available
system.cpu_cluster.cpus.iq.fu_full::SimdCvt            0      0.00%     37.75% # attempts to use FU when none available
system.cpu_cluster.cpus.iq.fu_full::SimdMisc            0      0.00%     37.75% # attempts to use FU when none available
system.cpu_cluster.cpus.iq.fu_full::SimdMult            0      0.00%     37.75% # attempts to use FU when none available
system.cpu_cluster.cpus.iq.fu_full::SimdMultAcc            0      0.00%     37.75% # attempts to use FU when none available
system.cpu_cluster.cpus.iq.fu_full::SimdShift            1      0.00%     37.75% # attempts to use FU when none available
system.cpu_cluster.cpus.iq.fu_full::SimdShiftAcc            0      0.00%     37.75% # attempts to use FU when none available
system.cpu_cluster.cpus.iq.fu_full::SimdDiv            0      0.00%     37.75% # attempts to use FU when none available
system.cpu_cluster.cpus.iq.fu_full::SimdSqrt            0      0.00%     37.75% # attempts to use FU when none available
system.cpu_cluster.cpus.iq.fu_full::SimdFloatAdd            0      0.00%     37.75% # attempts to use FU when none available
system.cpu_cluster.cpus.iq.fu_full::SimdFloatAlu            0      0.00%     37.75% # attempts to use FU when none available
system.cpu_cluster.cpus.iq.fu_full::SimdFloatCmp            0      0.00%     37.75% # attempts to use FU when none available
system.cpu_cluster.cpus.iq.fu_full::SimdFloatCvt            0      0.00%     37.75% # attempts to use FU when none available
system.cpu_cluster.cpus.iq.fu_full::SimdFloatDiv            0      0.00%     37.75% # attempts to use FU when none available
system.cpu_cluster.cpus.iq.fu_full::SimdFloatMisc            0      0.00%     37.75% # attempts to use FU when none available
system.cpu_cluster.cpus.iq.fu_full::SimdFloatMult            0      0.00%     37.75% # attempts to use FU when none available
system.cpu_cluster.cpus.iq.fu_full::SimdFloatMultAcc            0      0.00%     37.75% # attempts to use FU when none available
system.cpu_cluster.cpus.iq.fu_full::SimdFloatSqrt            0      0.00%     37.75% # attempts to use FU when none available
system.cpu_cluster.cpus.iq.fu_full::SimdReduceAdd            0      0.00%     37.75% # attempts to use FU when none available
system.cpu_cluster.cpus.iq.fu_full::SimdReduceAlu            0      0.00%     37.75% # attempts to use FU when none available
system.cpu_cluster.cpus.iq.fu_full::SimdReduceCmp            0      0.00%     37.75% # attempts to use FU when none available
system.cpu_cluster.cpus.iq.fu_full::SimdFloatReduceAdd            0      0.00%     37.75% # attempts to use FU when none available
system.cpu_cluster.cpus.iq.fu_full::SimdFloatReduceCmp            0      0.00%     37.75% # attempts to use FU when none available
system.cpu_cluster.cpus.iq.fu_full::SimdAes            0      0.00%     37.75% # attempts to use FU when none available
system.cpu_cluster.cpus.iq.fu_full::SimdAesMix            0      0.00%     37.75% # attempts to use FU when none available
system.cpu_cluster.cpus.iq.fu_full::SimdSha1Hash            0      0.00%     37.75% # attempts to use FU when none available
system.cpu_cluster.cpus.iq.fu_full::SimdSha1Hash2            0      0.00%     37.75% # attempts to use FU when none available
system.cpu_cluster.cpus.iq.fu_full::SimdSha256Hash            0      0.00%     37.75% # attempts to use FU when none available
system.cpu_cluster.cpus.iq.fu_full::SimdSha256Hash2            0      0.00%     37.75% # attempts to use FU when none available
system.cpu_cluster.cpus.iq.fu_full::SimdShaSigma2            0      0.00%     37.75% # attempts to use FU when none available
system.cpu_cluster.cpus.iq.fu_full::SimdShaSigma3            0      0.00%     37.75% # attempts to use FU when none available
system.cpu_cluster.cpus.iq.fu_full::SimdPredAlu            0      0.00%     37.75% # attempts to use FU when none available
system.cpu_cluster.cpus.iq.fu_full::MemRead     50233289     33.30%     71.06% # attempts to use FU when none available
system.cpu_cluster.cpus.iq.fu_full::MemWrite     43658252     28.94%    100.00% # attempts to use FU when none available
system.cpu_cluster.cpus.iq.fu_full::FloatMemRead            0      0.00%    100.00% # attempts to use FU when none available
system.cpu_cluster.cpus.iq.fu_full::FloatMemWrite            0      0.00%    100.00% # attempts to use FU when none available
system.cpu_cluster.cpus.iq.fu_full::IprAccess            0      0.00%    100.00% # attempts to use FU when none available
system.cpu_cluster.cpus.iq.fu_full::InstPrefetch            0      0.00%    100.00% # attempts to use FU when none available
system.cpu_cluster.cpus.iq.int_alu_accesses    660910293                       # Number of integer alu accesses
system.cpu_cluster.cpus.iq.int_inst_queue_reads   1465911792                       # Number of integer instruction queue reads
system.cpu_cluster.cpus.iq.int_inst_queue_wakeup_accesses    505044987                       # Number of integer instruction queue wakeup accesses
system.cpu_cluster.cpus.iq.int_inst_queue_writes    582183472                       # Number of integer instruction queue writes
system.cpu_cluster.cpus.iq.iqInstsAdded     534376441                       # Number of instructions added to the IQ (excludes non-spec)
system.cpu_cluster.cpus.iq.iqInstsIssued    510863731                       # Number of instructions issued
system.cpu_cluster.cpus.iq.iqNonSpecInstsAdded        53713                       # Number of non-speculative instructions added to the IQ
system.cpu_cluster.cpus.iq.iqSquashedInstsExamined     48307881                       # Number of squashed instructions iterated over during squash; mainly for profiling
system.cpu_cluster.cpus.iq.iqSquashedInstsIssued      1732414                       # Number of squashed instructions issued
system.cpu_cluster.cpus.iq.iqSquashedNonSpecRemoved         6360                       # Number of squashed non-spec instructions that were removed
system.cpu_cluster.cpus.iq.iqSquashedOperandsExamined     47710782                       # Number of squashed operands that are examined and possibly removed from graph
system.cpu_cluster.cpus.iq.issued_per_cycle::samples    292900634                       # Number of insts issued each cycle
system.cpu_cluster.cpus.iq.issued_per_cycle::mean     1.744154                       # Number of insts issued each cycle
system.cpu_cluster.cpus.iq.issued_per_cycle::stdev     1.103459                       # Number of insts issued each cycle
system.cpu_cluster.cpus.iq.issued_per_cycle::underflows            0      0.00%      0.00% # Number of insts issued each cycle
system.cpu_cluster.cpus.iq.issued_per_cycle::0     49289107     16.83%     16.83% # Number of insts issued each cycle
system.cpu_cluster.cpus.iq.issued_per_cycle::1     66767521     22.80%     39.62% # Number of insts issued each cycle
system.cpu_cluster.cpus.iq.issued_per_cycle::2     97173051     33.18%     72.80% # Number of insts issued each cycle
system.cpu_cluster.cpus.iq.issued_per_cycle::3     68937679     23.54%     96.34% # Number of insts issued each cycle
system.cpu_cluster.cpus.iq.issued_per_cycle::4     10729309      3.66%    100.00% # Number of insts issued each cycle
system.cpu_cluster.cpus.iq.issued_per_cycle::5         3967      0.00%    100.00% # Number of insts issued each cycle
system.cpu_cluster.cpus.iq.issued_per_cycle::6            0      0.00%    100.00% # Number of insts issued each cycle
system.cpu_cluster.cpus.iq.issued_per_cycle::7            0      0.00%    100.00% # Number of insts issued each cycle
system.cpu_cluster.cpus.iq.issued_per_cycle::8            0      0.00%    100.00% # Number of insts issued each cycle
system.cpu_cluster.cpus.iq.issued_per_cycle::overflows            0      0.00%    100.00% # Number of insts issued each cycle
system.cpu_cluster.cpus.iq.issued_per_cycle::min_value            0                       # Number of insts issued each cycle
system.cpu_cluster.cpus.iq.issued_per_cycle::max_value            5                       # Number of insts issued each cycle
system.cpu_cluster.cpus.iq.issued_per_cycle::total    292900634                       # Number of insts issued each cycle
system.cpu_cluster.cpus.iq.rate              1.742864                       # Inst issue rate
system.cpu_cluster.cpus.iq.vec_alu_accesses       745737                       # Number of vector alu accesses
system.cpu_cluster.cpus.iq.vec_inst_queue_reads      1284430                       # Number of vector instruction queue reads
system.cpu_cluster.cpus.iq.vec_inst_queue_wakeup_accesses       524712                       # Number of vector instruction queue wakeup accesses
system.cpu_cluster.cpus.iq.vec_inst_queue_writes       556440                       # Number of vector instruction queue writes
system.cpu_cluster.cpus.itb.accesses                0                       # DTB accesses
system.cpu_cluster.cpus.itb.align_faults            0                       # Number of TLB faults due to alignment restrictions
system.cpu_cluster.cpus.itb.domain_faults            0                       # Number of TLB faults due to domain restrictions
system.cpu_cluster.cpus.itb.flush_entries            0                       # Number of entries that have been flushed from TLB
system.cpu_cluster.cpus.itb.flush_tlb               0                       # Number of times complete TLB was flushed
system.cpu_cluster.cpus.itb.flush_tlb_asid            0                       # Number of times TLB was flushed by ASID
system.cpu_cluster.cpus.itb.flush_tlb_mva            0                       # Number of times TLB was flushed by MVA
system.cpu_cluster.cpus.itb.flush_tlb_mva_asid            0                       # Number of times TLB was flushed by MVA & ASID
system.cpu_cluster.cpus.itb.hits                    0                       # DTB hits
system.cpu_cluster.cpus.itb.inst_accesses            0                       # ITB inst accesses
system.cpu_cluster.cpus.itb.inst_hits               0                       # ITB inst hits
system.cpu_cluster.cpus.itb.inst_misses             0                       # ITB inst misses
system.cpu_cluster.cpus.itb.misses                  0                       # DTB misses
system.cpu_cluster.cpus.itb.perms_faults            0                       # Number of TLB faults due to permissions restrictions
system.cpu_cluster.cpus.itb.prefetch_faults            0                       # Number of TLB faults due to prefetch
system.cpu_cluster.cpus.itb.read_accesses            0                       # DTB read accesses
system.cpu_cluster.cpus.itb.read_hits               0                       # DTB read hits
system.cpu_cluster.cpus.itb.read_misses             0                       # DTB read misses
system.cpu_cluster.cpus.itb.stage2_mmu.stage2_tlb.accesses            0                       # DTB accesses
system.cpu_cluster.cpus.itb.stage2_mmu.stage2_tlb.align_faults            0                       # Number of TLB faults due to alignment restrictions
system.cpu_cluster.cpus.itb.stage2_mmu.stage2_tlb.domain_faults            0                       # Number of TLB faults due to domain restrictions
system.cpu_cluster.cpus.itb.stage2_mmu.stage2_tlb.flush_entries            0                       # Number of entries that have been flushed from TLB
system.cpu_cluster.cpus.itb.stage2_mmu.stage2_tlb.flush_tlb            0                       # Number of times complete TLB was flushed
system.cpu_cluster.cpus.itb.stage2_mmu.stage2_tlb.flush_tlb_asid            0                       # Number of times TLB was flushed by ASID
system.cpu_cluster.cpus.itb.stage2_mmu.stage2_tlb.flush_tlb_mva            0                       # Number of times TLB was flushed by MVA
system.cpu_cluster.cpus.itb.stage2_mmu.stage2_tlb.flush_tlb_mva_asid            0                       # Number of times TLB was flushed by MVA & ASID
system.cpu_cluster.cpus.itb.stage2_mmu.stage2_tlb.hits            0                       # DTB hits
system.cpu_cluster.cpus.itb.stage2_mmu.stage2_tlb.inst_accesses            0                       # ITB inst accesses
system.cpu_cluster.cpus.itb.stage2_mmu.stage2_tlb.inst_hits            0                       # ITB inst hits
system.cpu_cluster.cpus.itb.stage2_mmu.stage2_tlb.inst_misses            0                       # ITB inst misses
system.cpu_cluster.cpus.itb.stage2_mmu.stage2_tlb.misses            0                       # DTB misses
system.cpu_cluster.cpus.itb.stage2_mmu.stage2_tlb.perms_faults            0                       # Number of TLB faults due to permissions restrictions
system.cpu_cluster.cpus.itb.stage2_mmu.stage2_tlb.prefetch_faults            0                       # Number of TLB faults due to prefetch
system.cpu_cluster.cpus.itb.stage2_mmu.stage2_tlb.read_accesses            0                       # DTB read accesses
system.cpu_cluster.cpus.itb.stage2_mmu.stage2_tlb.read_hits            0                       # DTB read hits
system.cpu_cluster.cpus.itb.stage2_mmu.stage2_tlb.read_misses            0                       # DTB read misses
system.cpu_cluster.cpus.itb.stage2_mmu.stage2_tlb.walker.walkRequestOrigin_Requested::Data            0                       # Table walker requests started/completed, data/inst
system.cpu_cluster.cpus.itb.stage2_mmu.stage2_tlb.walker.walkRequestOrigin_Requested::Inst            0                       # Table walker requests started/completed, data/inst
system.cpu_cluster.cpus.itb.stage2_mmu.stage2_tlb.walker.walkRequestOrigin_Requested::total            0                       # Table walker requests started/completed, data/inst
system.cpu_cluster.cpus.itb.stage2_mmu.stage2_tlb.walker.walkRequestOrigin_Completed::Data            0                       # Table walker requests started/completed, data/inst
system.cpu_cluster.cpus.itb.stage2_mmu.stage2_tlb.walker.walkRequestOrigin_Completed::Inst            0                       # Table walker requests started/completed, data/inst
system.cpu_cluster.cpus.itb.stage2_mmu.stage2_tlb.walker.walkRequestOrigin_Completed::total            0                       # Table walker requests started/completed, data/inst
system.cpu_cluster.cpus.itb.stage2_mmu.stage2_tlb.walker.walkRequestOrigin::total            0                       # Table walker requests started/completed, data/inst
system.cpu_cluster.cpus.itb.stage2_mmu.stage2_tlb.walker.walks            0                       # Table walker walks requested
system.cpu_cluster.cpus.itb.stage2_mmu.stage2_tlb.write_accesses            0                       # DTB write accesses
system.cpu_cluster.cpus.itb.stage2_mmu.stage2_tlb.write_hits            0                       # DTB write hits
system.cpu_cluster.cpus.itb.stage2_mmu.stage2_tlb.write_misses            0                       # DTB write misses
system.cpu_cluster.cpus.itb.walker.walkRequestOrigin_Requested::Data            0                       # Table walker requests started/completed, data/inst
system.cpu_cluster.cpus.itb.walker.walkRequestOrigin_Requested::Inst            0                       # Table walker requests started/completed, data/inst
system.cpu_cluster.cpus.itb.walker.walkRequestOrigin_Requested::total            0                       # Table walker requests started/completed, data/inst
system.cpu_cluster.cpus.itb.walker.walkRequestOrigin_Completed::Data            0                       # Table walker requests started/completed, data/inst
system.cpu_cluster.cpus.itb.walker.walkRequestOrigin_Completed::Inst            0                       # Table walker requests started/completed, data/inst
system.cpu_cluster.cpus.itb.walker.walkRequestOrigin_Completed::total            0                       # Table walker requests started/completed, data/inst
system.cpu_cluster.cpus.itb.walker.walkRequestOrigin::total            0                       # Table walker requests started/completed, data/inst
system.cpu_cluster.cpus.itb.walker.walks            0                       # Table walker walks requested
system.cpu_cluster.cpus.itb.write_accesses            0                       # DTB write accesses
system.cpu_cluster.cpus.itb.write_hits              0                       # DTB write hits
system.cpu_cluster.cpus.itb.write_misses            0                       # DTB write misses
system.cpu_cluster.cpus.memDep0.conflictingLoads      4473955                       # Number of conflicting loads.
system.cpu_cluster.cpus.memDep0.conflictingStores       830659                       # Number of conflicting stores.
system.cpu_cluster.cpus.memDep0.insertedLoads    131804507                       # Number of loads inserted to the mem dependence unit.
system.cpu_cluster.cpus.memDep0.insertedStores     72237702                       # Number of stores inserted to the mem dependence unit.
system.cpu_cluster.cpus.misc_regfile_reads    507543761                       # number of misc regfile reads
system.cpu_cluster.cpus.misc_regfile_writes        20389                       # number of misc regfile writes
system.cpu_cluster.cpus.numCycles           293117387                       # number of cpu cycles simulated
system.cpu_cluster.cpus.numWorkItemsCompleted            0                       # number of work items this cpu completed
system.cpu_cluster.cpus.numWorkItemsStarted            0                       # number of work items this cpu started
system.cpu_cluster.cpus.rename.BlockCycles     14954328                       # Number of cycles rename is blocking
system.cpu_cluster.cpus.rename.CommittedMaps    560515893                       # Number of HB maps that are committed
system.cpu_cluster.cpus.rename.FullRegisterEvents         5171                       # Number of times there has been no free registers
system.cpu_cluster.cpus.rename.IQFullEvents       948433                       # Number of times rename has blocked due to IQ full
system.cpu_cluster.cpus.rename.IdleCycles     48662056                       # Number of cycles rename is idle
system.cpu_cluster.cpus.rename.LQFullEvents       209932                       # Number of times rename has blocked due to LQ full
system.cpu_cluster.cpus.rename.ROBFullEvents     20950334                       # Number of times rename has blocked due to ROB full
system.cpu_cluster.cpus.rename.RenameLookups    865216144                       # Number of register rename lookups that rename has made
system.cpu_cluster.cpus.rename.RenamedInsts    538849959                       # Number of instructions processed by rename
system.cpu_cluster.cpus.rename.RenamedOperands    625879639                       # Number of destination operands rename has renamed
system.cpu_cluster.cpus.rename.RunCycles    186662725                       # Number of cycles rename is running
system.cpu_cluster.cpus.rename.SQFullEvents      7115840                       # Number of times rename has blocked due to SQ full
system.cpu_cluster.cpus.rename.SquashCycles      2294546                       # Number of cycles rename is squashing
system.cpu_cluster.cpus.rename.SquashedInsts      4478450                       # Number of squashed instructions processed by rename
system.cpu_cluster.cpus.rename.UnblockCycles     38911928                       # Number of cycles rename is unblocking
system.cpu_cluster.cpus.rename.UndoneMaps     65363746                       # Number of HB maps that are undone due to squashing
system.cpu_cluster.cpus.rename.int_rename_lookups    694430113                       # Number of integer rename lookups
system.cpu_cluster.cpus.rename.serializeStallCycles      1415051                       # count of cycles rename stalled for serializing inst
system.cpu_cluster.cpus.rename.serializingInsts       119739                       # count of serializing insts renamed
system.cpu_cluster.cpus.rename.skidInsts     60368441                       # count of insts added to the skid buffer
system.cpu_cluster.cpus.rename.tempSerializingInsts         4342                       # count of temporary serializing insts renamed
system.cpu_cluster.cpus.rename.vec_rename_lookups       396164                       # Number of vector rename lookups
system.cpu_cluster.cpus.rob.rob_reads       802757717                       # The number of ROB reads
system.cpu_cluster.cpus.rob.rob_writes     1067695464                       # The number of ROB writes
system.cpu_cluster.cpus.timesIdled               1681                       # Number of times that the entire CPU went into an idle state and unscheduled itself
system.cpu_cluster.cpus.vec_regfile_reads       383158                       # number of vector regfile reads
system.cpu_cluster.cpus.vec_regfile_writes       223698                       # number of vector regfile writes
system.cpu_cluster.cpus.workload.numSyscalls         4232                       # Number of system calls
system.cpu_cluster.l2.prefetcher.num_hwpf_issued        91723                       # number of hwpf issued
system.cpu_cluster.l2.prefetcher.pfBufferHit           43                       # number of redundant prefetches already in prefetch queue
system.cpu_cluster.l2.prefetcher.pfIdentified        91775                       # number of prefetch candidates identified
system.cpu_cluster.l2.prefetcher.pfInCache            0                       # number of redundant prefetches already in cache/mshr dropped
system.cpu_cluster.l2.prefetcher.pfRemovedFull            0                       # number of prefetches dropped due to prefetch queue size
system.cpu_cluster.l2.prefetcher.pfSpanPage        25697                       # number of prefetches that crossed the page
system.cpu_cluster.toL2Bus.snoop_filter.hit_multi_requests            2                       # Number of requests hitting in the snoop filter with multiple (>1) holders of the requested data.
system.cpu_cluster.toL2Bus.snoop_filter.hit_multi_snoops            0                       # Number of snoops hitting in the snoop filter with multiple (>1) holders of the requested data.
system.cpu_cluster.toL2Bus.snoop_filter.hit_single_requests       203704                       # Number of requests hitting in the snoop filter with a single holder of the requested data.
system.cpu_cluster.toL2Bus.snoop_filter.hit_single_snoops        23470                       # Number of snoops hitting in the snoop filter with a single holder of the requested data.
system.cpu_cluster.toL2Bus.snoop_filter.tot_requests       408430                       # Total number of requests made to the snoop filter.
system.cpu_cluster.toL2Bus.snoop_filter.tot_snoops        23470                       # Total number of snoops made to the snoop filter.
system.membus.snoop_filter.hit_multi_requests            0                       # Number of requests hitting in the snoop filter with multiple (>1) holders of the requested data.
system.membus.snoop_filter.hit_multi_snoops            0                       # Number of snoops hitting in the snoop filter with multiple (>1) holders of the requested data.
system.membus.snoop_filter.hit_single_requests            3                       # Number of requests hitting in the snoop filter with a single holder of the requested data.
system.membus.snoop_filter.hit_single_snoops            0                       # Number of snoops hitting in the snoop filter with a single holder of the requested data.
system.membus.snoop_filter.tot_requests          5585                       # Total number of requests made to the snoop filter.
system.membus.snoop_filter.tot_snoops               0                       # Total number of snoops made to the snoop filter.
system.membus.pwrStateResidencyTicks::UNDEFINED 104642906802                       # Cumulative time (in ticks) in various power states
system.membus.trans_dist::ReadResp               4288                       # Transaction distribution
system.membus.trans_dist::ReadExReq              1188                       # Transaction distribution
system.membus.trans_dist::ReadExResp             1188                       # Transaction distribution
system.membus.trans_dist::ReadCleanReq           4288                       # Transaction distribution
system.membus.trans_dist::InvalidateReq           109                       # Transaction distribution
system.membus.pkt_count_system.cpu_cluster.l2.mem_side::system.mem_ctrls.port        11061                       # Packet count per connected master and slave (bytes)
system.membus.pkt_count_system.cpu_cluster.l2.mem_side::total        11061                       # Packet count per connected master and slave (bytes)
system.membus.pkt_count::total                  11061                       # Packet count per connected master and slave (bytes)
system.membus.pkt_size_system.cpu_cluster.l2.mem_side::system.mem_ctrls.port       350464                       # Cumulative packet size per connected master and slave (bytes)
system.membus.pkt_size_system.cpu_cluster.l2.mem_side::total       350464                       # Cumulative packet size per connected master and slave (bytes)
system.membus.pkt_size::total                  350464                       # Cumulative packet size per connected master and slave (bytes)
system.membus.snoops                                0                       # Total snoops (count)
system.membus.snoopTraffic                          0                       # Total snoop traffic (bytes)
system.membus.snoop_fanout::samples              5585                       # Request fanout histogram
system.membus.snoop_fanout::mean                    0                       # Request fanout histogram
system.membus.snoop_fanout::stdev                   0                       # Request fanout histogram
system.membus.snoop_fanout::underflows              0      0.00%      0.00% # Request fanout histogram
system.membus.snoop_fanout::0                    5585    100.00%    100.00% # Request fanout histogram
system.membus.snoop_fanout::1                       0      0.00%    100.00% # Request fanout histogram
system.membus.snoop_fanout::overflows               0      0.00%    100.00% # Request fanout histogram
system.membus.snoop_fanout::min_value               0                       # Request fanout histogram
system.membus.snoop_fanout::max_value               0                       # Request fanout histogram
system.membus.snoop_fanout::total                5585                       # Request fanout histogram
system.membus.reqLayer0.occupancy             7682945                       # Layer occupancy (ticks)
system.membus.reqLayer0.utilization               0.0                       # Layer utilization (%)
system.membus.badaddr_responder.pwrStateResidencyTicks::UNDEFINED 104642906802                       # Cumulative time (in ticks) in various power states
system.membus.respLayer1.occupancy           28457699                       # Layer occupancy (ticks)
system.membus.respLayer1.utilization              0.0                       # Layer utilization (%)
system.voltage_domain.voltage                       1                       # Voltage in Volts
system.clk_domain.clock                          1000                       # Clock period in ticks
system.cpu_cluster.toL2Bus.pwrStateResidencyTicks::UNDEFINED 104642906802                       # Cumulative time (in ticks) in various power states
system.cpu_cluster.toL2Bus.trans_dist::ReadResp       164443                       # Transaction distribution
system.cpu_cluster.toL2Bus.trans_dist::WritebackDirty       169820                       # Transaction distribution
system.cpu_cluster.toL2Bus.trans_dist::WritebackClean        33883                       # Transaction distribution
system.cpu_cluster.toL2Bus.trans_dist::HardPFReq        26746                       # Transaction distribution
system.cpu_cluster.toL2Bus.trans_dist::ReadExReq        37767                       # Transaction distribution
system.cpu_cluster.toL2Bus.trans_dist::ReadExResp        37767                       # Transaction distribution
system.cpu_cluster.toL2Bus.trans_dist::ReadCleanReq        31963                       # Transaction distribution
system.cpu_cluster.toL2Bus.trans_dist::ReadSharedReq       132481                       # Transaction distribution
system.cpu_cluster.toL2Bus.trans_dist::InvalidateReq         2516                       # Transaction distribution
system.cpu_cluster.toL2Bus.trans_dist::InvalidateResp         2516                       # Transaction distribution
system.cpu_cluster.toL2Bus.pkt_count_system.cpu_cluster.cpus.icache.mem_side::system.cpu_cluster.l2.cpu_side        95376                       # Packet count per connected master and slave (bytes)
system.cpu_cluster.toL2Bus.pkt_count_system.cpu_cluster.cpus.dcache.mem_side::system.cpu_cluster.l2.cpu_side       517780                       # Packet count per connected master and slave (bytes)
system.cpu_cluster.toL2Bus.pkt_count::total       613156                       # Packet count per connected master and slave (bytes)
system.cpu_cluster.toL2Bus.pkt_size_system.cpu_cluster.cpus.icache.mem_side::system.cpu_cluster.l2.cpu_side      4058432                       # Cumulative packet size per connected master and slave (bytes)
system.cpu_cluster.toL2Bus.pkt_size_system.cpu_cluster.cpus.dcache.mem_side::system.cpu_cluster.l2.cpu_side     21920000                       # Cumulative packet size per connected master and slave (bytes)
system.cpu_cluster.toL2Bus.pkt_size::total     25978432                       # Cumulative packet size per connected master and slave (bytes)
system.cpu_cluster.toL2Bus.snoops               26746                       # Total snoops (count)
system.cpu_cluster.toL2Bus.snoopTraffic             0                       # Total snoop traffic (bytes)
system.cpu_cluster.toL2Bus.snoop_fanout::samples       231473                       # Request fanout histogram
system.cpu_cluster.toL2Bus.snoop_fanout::mean     0.101407                       # Request fanout histogram
system.cpu_cluster.toL2Bus.snoop_fanout::stdev     0.301868                       # Request fanout histogram
system.cpu_cluster.toL2Bus.snoop_fanout::underflows            0      0.00%      0.00% # Request fanout histogram
system.cpu_cluster.toL2Bus.snoop_fanout::0       208000     89.86%     89.86% # Request fanout histogram
system.cpu_cluster.toL2Bus.snoop_fanout::1        23473     10.14%    100.00% # Request fanout histogram
system.cpu_cluster.toL2Bus.snoop_fanout::2            0      0.00%    100.00% # Request fanout histogram
system.cpu_cluster.toL2Bus.snoop_fanout::overflows            0      0.00%    100.00% # Request fanout histogram
system.cpu_cluster.toL2Bus.snoop_fanout::min_value            0                       # Request fanout histogram
system.cpu_cluster.toL2Bus.snoop_fanout::max_value            1                       # Request fanout histogram
system.cpu_cluster.toL2Bus.snoop_fanout::total       231473                       # Request fanout histogram
system.cpu_cluster.toL2Bus.reqLayer0.occupancy    218531481                       # Layer occupancy (ticks)
system.cpu_cluster.toL2Bus.reqLayer0.utilization          0.2                       # Layer utilization (%)
system.cpu_cluster.toL2Bus.respLayer1.occupancy    122455284                       # Layer occupancy (ticks)
system.cpu_cluster.toL2Bus.respLayer1.utilization          0.1                       # Layer utilization (%)
system.cpu_cluster.toL2Bus.respLayer0.occupancy     22821224                       # Layer occupancy (ticks)
system.cpu_cluster.toL2Bus.respLayer0.utilization          0.0                       # Layer utilization (%)
system.cpu_cluster.voltage_domain.voltage            1                       # Voltage in Volts
system.cpu_cluster.l2.pwrStateResidencyTicks::UNDEFINED 104642906802                       # Cumulative time (in ticks) in various power states
system.cpu_cluster.l2.demand_hits::.cpu_cluster.cpus.inst        30348                       # number of demand (read+write) hits
system.cpu_cluster.l2.demand_hits::.cpu_cluster.cpus.data       168570                       # number of demand (read+write) hits
system.cpu_cluster.l2.demand_hits::total       198918                       # number of demand (read+write) hits
system.cpu_cluster.l2.overall_hits::.cpu_cluster.cpus.inst        30348                       # number of overall hits
system.cpu_cluster.l2.overall_hits::.cpu_cluster.cpus.data       168570                       # number of overall hits
system.cpu_cluster.l2.overall_hits::total       198918                       # number of overall hits
system.cpu_cluster.l2.demand_misses::.cpu_cluster.cpus.inst         1615                       # number of demand (read+write) misses
system.cpu_cluster.l2.demand_misses::.cpu_cluster.cpus.data         1678                       # number of demand (read+write) misses
system.cpu_cluster.l2.demand_misses::total         3293                       # number of demand (read+write) misses
system.cpu_cluster.l2.overall_misses::.cpu_cluster.cpus.inst         1615                       # number of overall misses
system.cpu_cluster.l2.overall_misses::.cpu_cluster.cpus.data         1678                       # number of overall misses
system.cpu_cluster.l2.overall_misses::total         3293                       # number of overall misses
system.cpu_cluster.l2.demand_miss_latency::.cpu_cluster.cpus.inst    128258676                       # number of demand (read+write) miss cycles
system.cpu_cluster.l2.demand_miss_latency::.cpu_cluster.cpus.data    137092284                       # number of demand (read+write) miss cycles
system.cpu_cluster.l2.demand_miss_latency::total    265350960                       # number of demand (read+write) miss cycles
system.cpu_cluster.l2.overall_miss_latency::.cpu_cluster.cpus.inst    128258676                       # number of overall miss cycles
system.cpu_cluster.l2.overall_miss_latency::.cpu_cluster.cpus.data    137092284                       # number of overall miss cycles
system.cpu_cluster.l2.overall_miss_latency::total    265350960                       # number of overall miss cycles
system.cpu_cluster.l2.demand_accesses::.cpu_cluster.cpus.inst        31963                       # number of demand (read+write) accesses
system.cpu_cluster.l2.demand_accesses::.cpu_cluster.cpus.data       170248                       # number of demand (read+write) accesses
system.cpu_cluster.l2.demand_accesses::total       202211                       # number of demand (read+write) accesses
system.cpu_cluster.l2.overall_accesses::.cpu_cluster.cpus.inst        31963                       # number of overall (read+write) accesses
system.cpu_cluster.l2.overall_accesses::.cpu_cluster.cpus.data       170248                       # number of overall (read+write) accesses
system.cpu_cluster.l2.overall_accesses::total       202211                       # number of overall (read+write) accesses
system.cpu_cluster.l2.demand_miss_rate::.cpu_cluster.cpus.inst     0.050527                       # miss rate for demand accesses
system.cpu_cluster.l2.demand_miss_rate::.cpu_cluster.cpus.data     0.009856                       # miss rate for demand accesses
system.cpu_cluster.l2.demand_miss_rate::total     0.016285                       # miss rate for demand accesses
system.cpu_cluster.l2.overall_miss_rate::.cpu_cluster.cpus.inst     0.050527                       # miss rate for overall accesses
system.cpu_cluster.l2.overall_miss_rate::.cpu_cluster.cpus.data     0.009856                       # miss rate for overall accesses
system.cpu_cluster.l2.overall_miss_rate::total     0.016285                       # miss rate for overall accesses
system.cpu_cluster.l2.demand_avg_miss_latency::.cpu_cluster.cpus.inst 79417.136842                       # average overall miss latency
system.cpu_cluster.l2.demand_avg_miss_latency::.cpu_cluster.cpus.data 81699.811681                       # average overall miss latency
system.cpu_cluster.l2.demand_avg_miss_latency::total 80580.309748                       # average overall miss latency
system.cpu_cluster.l2.overall_avg_miss_latency::.cpu_cluster.cpus.inst 79417.136842                       # average overall miss latency
system.cpu_cluster.l2.overall_avg_miss_latency::.cpu_cluster.cpus.data 81699.811681                       # average overall miss latency
system.cpu_cluster.l2.overall_avg_miss_latency::total 80580.309748                       # average overall miss latency
system.cpu_cluster.l2.blocked_cycles::no_mshrs            0                       # number of cycles access was blocked
system.cpu_cluster.l2.blocked_cycles::no_targets            0                       # number of cycles access was blocked
system.cpu_cluster.l2.blocked::no_mshrs             0                       # number of cycles access was blocked
system.cpu_cluster.l2.blocked::no_targets            0                       # number of cycles access was blocked
system.cpu_cluster.l2.avg_blocked_cycles::no_mshrs          nan                       # average number of cycles each access was blocked
system.cpu_cluster.l2.avg_blocked_cycles::no_targets          nan                       # average number of cycles each access was blocked
system.cpu_cluster.l2.unused_prefetches          2133                       # number of HardPF blocks evicted w/o reference
system.cpu_cluster.l2.demand_mshr_hits::.cpu_cluster.cpus.data          196                       # number of demand (read+write) MSHR hits
system.cpu_cluster.l2.demand_mshr_hits::total          196                       # number of demand (read+write) MSHR hits
system.cpu_cluster.l2.overall_mshr_hits::.cpu_cluster.cpus.data          196                       # number of overall MSHR hits
system.cpu_cluster.l2.overall_mshr_hits::total          196                       # number of overall MSHR hits
system.cpu_cluster.l2.demand_mshr_misses::.cpu_cluster.cpus.inst         1615                       # number of demand (read+write) MSHR misses
system.cpu_cluster.l2.demand_mshr_misses::.cpu_cluster.cpus.data         1482                       # number of demand (read+write) MSHR misses
system.cpu_cluster.l2.demand_mshr_misses::total         3097                       # number of demand (read+write) MSHR misses
system.cpu_cluster.l2.overall_mshr_misses::.cpu_cluster.cpus.inst         1615                       # number of overall MSHR misses
system.cpu_cluster.l2.overall_mshr_misses::.cpu_cluster.cpus.data         1482                       # number of overall MSHR misses
system.cpu_cluster.l2.overall_mshr_misses::.cpu_cluster.l2.prefetcher        25850                       # number of overall MSHR misses
system.cpu_cluster.l2.overall_mshr_misses::total        28947                       # number of overall MSHR misses
system.cpu_cluster.l2.demand_mshr_miss_latency::.cpu_cluster.cpus.inst    121055591                       # number of demand (read+write) MSHR miss cycles
system.cpu_cluster.l2.demand_mshr_miss_latency::.cpu_cluster.cpus.data    125672816                       # number of demand (read+write) MSHR miss cycles
system.cpu_cluster.l2.demand_mshr_miss_latency::total    246728407                       # number of demand (read+write) MSHR miss cycles
system.cpu_cluster.l2.overall_mshr_miss_latency::.cpu_cluster.cpus.inst    121055591                       # number of overall MSHR miss cycles
system.cpu_cluster.l2.overall_mshr_miss_latency::.cpu_cluster.cpus.data    125672816                       # number of overall MSHR miss cycles
system.cpu_cluster.l2.overall_mshr_miss_latency::.cpu_cluster.l2.prefetcher    208385426                       # number of overall MSHR miss cycles
system.cpu_cluster.l2.overall_mshr_miss_latency::total    455113833                       # number of overall MSHR miss cycles
system.cpu_cluster.l2.demand_mshr_miss_rate::.cpu_cluster.cpus.inst     0.050527                       # mshr miss rate for demand accesses
[...]
system.mem_ctrls.rdQLenPdf::1                    2825                       # What read queue length does an incoming req see
system.mem_ctrls.rdQLenPdf::2                    1282                       # What read queue length does an incoming req see
system.mem_ctrls.rdQLenPdf::3                    1273                       # What read queue length does an incoming req see
system.mem_ctrls.rdQLenPdf::4                     459                       # What read queue length does an incoming req see
system.mem_ctrls.rdQLenPdf::5                     452                       # What read queue length does an incoming req see
system.mem_ctrls.rdQLenPdf::6                     227                       # What read queue length does an incoming req see
system.mem_ctrls.rdQLenPdf::7                     238                       # What read queue length does an incoming req see
system.mem_ctrls.rdQLenPdf::8                     200                       # What read queue length does an incoming req see
system.mem_ctrls.rdQLenPdf::9                     203                       # What read queue length does an incoming req see
system.mem_ctrls.rdQLenPdf::10                    168                       # What read queue length does an incoming req see
system.mem_ctrls.rdQLenPdf::11                    146                       # What read queue length does an incoming req see
system.mem_ctrls.rdQLenPdf::12                    124                       # What read queue length does an incoming req see
system.mem_ctrls.rdQLenPdf::13                    118                       # What read queue length does an incoming req see
system.mem_ctrls.rdQLenPdf::14                    101                       # What read queue length does an incoming req see
system.mem_ctrls.rdQLenPdf::15                     95                       # What read queue length does an incoming req see
system.mem_ctrls.rdQLenPdf::16                     74                       # What read queue length does an incoming req see
system.mem_ctrls.rdQLenPdf::17                     73                       # What read queue length does an incoming req see
system.mem_ctrls.rdQLenPdf::18                     35                       # What read queue length does an incoming req see
system.mem_ctrls.rdQLenPdf::19                     35                       # What read queue length does an incoming req see
system.mem_ctrls.rdQLenPdf::20                     12                       # What read queue length does an incoming req see
system.mem_ctrls.rdQLenPdf::21                     12                       # What read queue length does an incoming req see
system.mem_ctrls.rdQLenPdf::22                      3                       # What read queue length does an incoming req see
system.mem_ctrls.rdQLenPdf::23                      3                       # What read queue length does an incoming req see
system.mem_ctrls.rdQLenPdf::24                      2                       # What read queue length does an incoming req see
system.mem_ctrls.rdQLenPdf::25                      2                       # What read queue length does an incoming req see
system.mem_ctrls.rdQLenPdf::26                      1                       # What read queue length does an incoming req see
system.mem_ctrls.rdQLenPdf::27                      1                       # What read queue length does an incoming req see
system.mem_ctrls.rdQLenPdf::28                      0                       # What read queue length does an incoming req see
system.mem_ctrls.rdQLenPdf::29                      0                       # What read queue length does an incoming req see
system.mem_ctrls.rdQLenPdf::30                      0                       # What read queue length does an incoming req see
system.mem_ctrls.rdQLenPdf::31                      0                       # What read queue length does an incoming req see
system.mem_ctrls.wrQLenPdf::0                       0                       # What write queue length does an incoming req see
system.mem_ctrls.wrQLenPdf::1                       0                       # What write queue length does an incoming req see
system.mem_ctrls.wrQLenPdf::2                       0                       # What write queue length does an incoming req see
system.mem_ctrls.wrQLenPdf::3                       0                       # What write queue length does an incoming req see
system.mem_ctrls.wrQLenPdf::4                       0                       # What write queue length does an incoming req see
system.mem_ctrls.wrQLenPdf::5                       0                       # What write queue length does an incoming req see
system.mem_ctrls.wrQLenPdf::6                       0                       # What write queue length does an incoming req see
system.mem_ctrls.wrQLenPdf::7                       0                       # What write queue length does an incoming req see
system.mem_ctrls.wrQLenPdf::8                       0                       # What write queue length does an incoming req see
system.mem_ctrls.wrQLenPdf::9                       0                       # What write queue length does an incoming req see
system.mem_ctrls.wrQLenPdf::10                      0                       # What write queue length does an incoming req see
system.mem_ctrls.wrQLenPdf::11                      0                       # What write queue length does an incoming req see
system.mem_ctrls.wrQLenPdf::12                      0                       # What write queue length does an incoming req see
system.mem_ctrls.wrQLenPdf::13                      0                       # What write queue length does an incoming req see
system.mem_ctrls.wrQLenPdf::14                      0                       # What write queue length does an incoming req see
system.mem_ctrls.wrQLenPdf::15                      0                       # What write queue length does an incoming req see
system.mem_ctrls.wrQLenPdf::16                      0                       # What write queue length does an incoming req see
system.mem_ctrls.wrQLenPdf::17                      0                       # What write queue length does an incoming req see
system.mem_ctrls.wrQLenPdf::18                      0                       # What write queue length does an incoming req see
system.mem_ctrls.wrQLenPdf::19                      0                       # What write queue length does an incoming req see
system.mem_ctrls.wrQLenPdf::20                      0                       # What write queue length does an incoming req see
system.mem_ctrls.wrQLenPdf::21                      0                       # What write queue length does an incoming req see
system.mem_ctrls.wrQLenPdf::22                      0                       # What write queue length does an incoming req see
system.mem_ctrls.wrQLenPdf::23                      0                       # What write queue length does an incoming req see
system.mem_ctrls.wrQLenPdf::24                      0                       # What write queue length does an incoming req see
system.mem_ctrls.wrQLenPdf::25                      0                       # What write queue length does an incoming req see
system.mem_ctrls.wrQLenPdf::26                      0                       # What write queue length does an incoming req see
system.mem_ctrls.wrQLenPdf::27                      0                       # What write queue length does an incoming req see
system.mem_ctrls.wrQLenPdf::28                      0                       # What write queue length does an incoming req see
system.mem_ctrls.wrQLenPdf::29                      0                       # What write queue length does an incoming req see
system.mem_ctrls.wrQLenPdf::30                      0                       # What write queue length does an incoming req see
system.mem_ctrls.wrQLenPdf::31                      0                       # What write queue length does an incoming req see
system.mem_ctrls.wrQLenPdf::32                      0                       # What write queue length does an incoming req see
system.mem_ctrls.wrQLenPdf::33                      0                       # What write queue length does an incoming req see
system.mem_ctrls.wrQLenPdf::34                      0                       # What write queue length does an incoming req see
system.mem_ctrls.wrQLenPdf::35                      0                       # What write queue length does an incoming req see
system.mem_ctrls.wrQLenPdf::36                      0                       # What write queue length does an incoming req see
system.mem_ctrls.wrQLenPdf::37                      0                       # What write queue length does an incoming req see
system.mem_ctrls.wrQLenPdf::38                      0                       # What write queue length does an incoming req see
system.mem_ctrls.wrQLenPdf::39                      0                       # What write queue length does an incoming req see
system.mem_ctrls.wrQLenPdf::40                      0                       # What write queue length does an incoming req see
system.mem_ctrls.wrQLenPdf::41                      0                       # What write queue length does an incoming req see
system.mem_ctrls.wrQLenPdf::42                      0                       # What write queue length does an incoming req see
system.mem_ctrls.wrQLenPdf::43                      0                       # What write queue length does an incoming req see
system.mem_ctrls.wrQLenPdf::44                      0                       # What write queue length does an incoming req see
system.mem_ctrls.wrQLenPdf::45                      0                       # What write queue length does an incoming req see
system.mem_ctrls.wrQLenPdf::46                      0                       # What write queue length does an incoming req see
system.mem_ctrls.wrQLenPdf::47                      0                       # What write queue length does an incoming req see
system.mem_ctrls.wrQLenPdf::48                      0                       # What write queue length does an incoming req see
system.mem_ctrls.wrQLenPdf::49                      0                       # What write queue length does an incoming req see
system.mem_ctrls.wrQLenPdf::50                      0                       # What write queue length does an incoming req see
system.mem_ctrls.wrQLenPdf::51                      0                       # What write queue length does an incoming req see
system.mem_ctrls.wrQLenPdf::52                      0                       # What write queue length does an incoming req see
system.mem_ctrls.wrQLenPdf::53                      0                       # What write queue length does an incoming req see
system.mem_ctrls.wrQLenPdf::54                      0                       # What write queue length does an incoming req see
system.mem_ctrls.wrQLenPdf::55                      0                       # What write queue length does an incoming req see
system.mem_ctrls.wrQLenPdf::56                      0                       # What write queue length does an incoming req see
system.mem_ctrls.wrQLenPdf::57                      0                       # What write queue length does an incoming req see
system.mem_ctrls.wrQLenPdf::58                      0                       # What write queue length does an incoming req see
system.mem_ctrls.wrQLenPdf::59                      0                       # What write queue length does an incoming req see
system.mem_ctrls.wrQLenPdf::60                      0                       # What write queue length does an incoming req see
system.mem_ctrls.wrQLenPdf::61                      0                       # What write queue length does an incoming req see
system.mem_ctrls.wrQLenPdf::62                      0                       # What write queue length does an incoming req see
system.mem_ctrls.wrQLenPdf::63                      0                       # What write queue length does an incoming req see
system.mem_ctrls.bytesPerActivate::samples         1536                       # Bytes accessed per row activation
system.mem_ctrls.bytesPerActivate::mean    227.458333                       # Bytes accessed per row activation
system.mem_ctrls.bytesPerActivate::gmean   164.334621                       # Bytes accessed per row activation
system.mem_ctrls.bytesPerActivate::stdev   177.280854                       # Bytes accessed per row activation
system.mem_ctrls.bytesPerActivate::0-63             1      0.07%      0.07% # Bytes accessed per row activation
system.mem_ctrls.bytesPerActivate::64-127          508     33.07%     33.14% # Bytes accessed per row activation
system.mem_ctrls.bytesPerActivate::128-191          320     20.83%     53.97% # Bytes accessed per row activation
system.mem_ctrls.bytesPerActivate::192-255          144      9.38%     63.35% # Bytes accessed per row activation
system.mem_ctrls.bytesPerActivate::256-319           84      5.47%     68.82% # Bytes accessed per row activation
system.mem_ctrls.bytesPerActivate::320-383           58      3.78%     72.59% # Bytes accessed per row activation
system.mem_ctrls.bytesPerActivate::384-447           48      3.12%     75.72% # Bytes accessed per row activation
system.mem_ctrls.bytesPerActivate::448-511           20      1.30%     77.02% # Bytes accessed per row activation
system.mem_ctrls.bytesPerActivate::512-575          353     22.98%    100.00% # Bytes accessed per row activation
system.mem_ctrls.bytesPerActivate::total         1536                       # Bytes accessed per row activation
system.mem_ctrls.bytesReadDRAM                 350464                       # Total number of bytes read from DRAM
system.mem_ctrls.bytesReadWrQ                       0                       # Total number of bytes read from write queue
system.mem_ctrls.bytesWritten                       0                       # Total number of bytes written to DRAM
system.mem_ctrls.bytesReadSys                  350464                       # Total read bytes from the system interface side
system.mem_ctrls.bytesWrittenSys                    0                       # Total written bytes from the system interface side
system.mem_ctrls.avgRdBW                         3.35                       # Average DRAM read bandwidth in MiByte/s
system.mem_ctrls.avgWrBW                         0.00                       # Average achieved write bandwidth in MiByte/s
system.mem_ctrls.avgRdBWSys                      3.35                       # Average system read bandwidth in MiByte/s
system.mem_ctrls.avgWrBWSys                      0.00                       # Average system write bandwidth in MiByte/s
system.mem_ctrls.peakBW                       6400.00                       # Theoretical peak bandwidth in MiByte/s
system.mem_ctrls.busUtil                         0.05                       # Data bus utilization in percentage
system.mem_ctrls.busUtilRead                     0.05                       # Data bus utilization in percentage for reads
system.mem_ctrls.busUtilWrite                    0.00                       # Data bus utilization in percentage for writes
system.mem_ctrls.totGap                  104642835402                       # Total gap between requests
system.mem_ctrls.avgGap                   19109356.36                       # Average gap between requests
system.mem_ctrls.masterReadBytes::.cpu_cluster.cpus.inst       103296                       # Per-master bytes read from memory
system.mem_ctrls.masterReadBytes::.cpu_cluster.cpus.data        94848                       # Per-master bytes read from memory
system.mem_ctrls.masterReadBytes::.cpu_cluster.l2.prefetcher       152320                       # Per-master bytes read from memory
system.mem_ctrls.masterReadRate::.cpu_cluster.cpus.inst 987128.541788804228                       # Per-master bytes read from memory rate (Bytes/sec)
system.mem_ctrls.masterReadRate::.cpu_cluster.cpus.data 906396.839486374054                       # Per-master bytes read from memory rate (Bytes/sec)
system.mem_ctrls.masterReadRate::.cpu_cluster.l2.prefetcher 1455617.056665027281                       # Per-master bytes read from memory rate (Bytes/sec)
system.mem_ctrls.masterReadAccesses::.cpu_cluster.cpus.inst         3228                       # Per-master read serviced memory accesses
system.mem_ctrls.masterReadAccesses::.cpu_cluster.cpus.data         2964                       # Per-master read serviced memory accesses
system.mem_ctrls.masterReadAccesses::.cpu_cluster.l2.prefetcher         4760                       # Per-master read serviced memory accesses
system.mem_ctrls.masterReadTotalLat::.cpu_cluster.cpus.inst    120279524                       # Per-master read total memory access latency
system.mem_ctrls.masterReadTotalLat::.cpu_cluster.cpus.data    138832852                       # Per-master read total memory access latency
system.mem_ctrls.masterReadTotalLat::.cpu_cluster.l2.prefetcher    257121226                       # Per-master read total memory access latency
system.mem_ctrls.masterReadAvgLat::.cpu_cluster.cpus.inst     37261.31                       # Per-master read average memory access latency
system.mem_ctrls.masterReadAvgLat::.cpu_cluster.cpus.data     46839.69                       # Per-master read average memory access latency
system.mem_ctrls.masterReadAvgLat::.cpu_cluster.l2.prefetcher     54017.06                       # Per-master read average memory access latency
system.mem_ctrls.pageHitRate                    85.92                       # Row buffer hit rate, read and write combined
system.mem_ctrls.rank0.actEnergy              2752470                       # Energy for activate commands per rank (pJ)
system.mem_ctrls.rank0.preEnergy         1445068.800000                       # Energy for precharge commands per rank (pJ)
system.mem_ctrls.rank0.readEnergy            12879552                       # Energy for read commands per rank (pJ)
system.mem_ctrls.rank0.writeEnergy                  0                       # Energy for write commands per rank (pJ)
system.mem_ctrls.rank0.refreshEnergy        651771900                       # Energy for refresh commands per rank (pJ)
system.mem_ctrls.rank0.actBackEnergy        185079513                       # Energy for active background per rank (pJ)
system.mem_ctrls.rank0.preBackEnergy     3279486047.999525                       # Energy for precharge background per rank (pJ)
system.mem_ctrls.rank0.actPowerDownEnergy            0                       # Energy for active power-down per rank (pJ)
system.mem_ctrls.rank0.prePowerDownEnergy            0                       # Energy for precharge power-down per rank (pJ)
system.mem_ctrls.rank0.selfRefreshEnergy            0                       # Energy for self refresh per rank (pJ)
system.mem_ctrls.rank0.totalEnergy       4133414551.799722                       # Total energy per rank (pJ)
system.mem_ctrls.rank0.averagePower         39.500189                       # Core power per rank (mW)
system.mem_ctrls.rank0.totalIdleTime                0                       # Total Idle time Per DRAM Rank
system.mem_ctrls.rank0.memoryStateTime::IDLE  99959142156                       # Time in different power states
system.mem_ctrls.rank0.memoryStateTime::REF   3504150000                       # Time in different power states
system.mem_ctrls.rank0.memoryStateTime::SREF            0                       # Time in different power states
system.mem_ctrls.rank0.memoryStateTime::PRE_PDN            0                       # Time in different power states
system.mem_ctrls.rank0.memoryStateTime::ACT   1179614646                       # Time in different power states
system.mem_ctrls.rank0.memoryStateTime::ACT_PDN            0                       # Time in different power states

---------- End Simulation Statistics   ----------
