gem5 Simulator System.  http://gem5.org
gem5 is copyrighted software; use the --copyright option for details.

gem5 compiled May 11 2023 13:12:28
gem5 started May 14 2023 13:03:05
gem5 executing on node4x10a.cs.rochester.edu, pid 70576
command line: /u/sgupta45/gem5-SALAM/build/ARM/gem5_bus.opt --debug-flags=HWACC,CommInterface,LLVMInterface,StreamDma,NoncoherentDma,TickTimer,SchedulerStats --outdir=BM_ARM_OUT/comb_4_xbar/canny_4_deblur_4_gru_0_harris_0_lstm_4_scale_0_ELF configs/SALAM/scheduler.py --mem-size=4GB --mem-type=LPDDR5_6400_1x16_BG_BL32 --kernel=/u/sgupta45/gem5-SALAM/benchmarks/scheduler/sw/bin_comb_4/canny_4_deblur_4_gru_0_harris_0_lstm_4_scale_0_ELF.elf --vans-config-path=/u/sgupta45/VANS/config --disk-image=/u/sgupta45/gem5-SALAM/baremetal/common/fake.iso --machine-type=VExpress_GEM5_V1 --dtb-file=none --bare-metal --cpu-type=ex5_LITTLE --cpu-clock=1.6GHz --accpath=/u/sgupta45/gem5-SALAM/benchmarks --caches --cacheline_size=64 --l1d_size=32kB --l1d_assoc=4 --l1i_size=32kB --l1i_assoc=2

Global frequency set at 1000000000000 ticks per second
Cycle Counts Loaded!
Cycle Counts Loaded!
Cycle Counts Loaded!
Cycle Counts Loaded!
Cycle Counts Loaded!
Cycle Counts Loaded!
Cycle Counts Loaded!
Cycle Counts Loaded!
Cycle Counts Loaded!
Cycle Counts Loaded!
Cycle Counts Loaded!
**** REAL SIMULATION ****
13871157500: global: Timer #2 started at tick 13871157500
13872670625: global: Timer #2 stopped at tick 13872670625. Duration: 1513125
13875272500: global: Timer #2 started at tick 13875272500
13875666875: global: Timer #2 stopped at tick 13875666875. Duration: 394375
13878005000: global: Timer #2 started at tick 13878005000
13878195000: global: Timer #2 stopped at tick 13878195000. Duration: 190000
13880673750: global: Timer #2 started at tick 13880673750
13880882500: global: Timer #2 stopped at tick 13880882500. Duration: 208750
13883408750: global: Timer #2 started at tick 13883408750
13883719375: global: Timer #2 stopped at tick 13883719375. Duration: 310625
13887591875: global: Timer #2 started at tick 13887591875
13887833125: global: Timer #2 stopped at tick 13887833125. Duration: 241250
13891885000: global: Timer #2 started at tick 13891885000
13892601875: global: Timer #2 stopped at tick 13892601875. Duration: 716875
13896441875: global: Timer #2 started at tick 13896441875
13896678125: global: Timer #2 stopped at tick 13896678125. Duration: 236250
13900655000: global: Timer #2 started at tick 13900655000
13900952500: global: Timer #2 stopped at tick 13900952500. Duration: 297500
13924035625: global: Timer #2 started at tick 13924035625
13924351250: global: Timer #2 stopped at tick 13924351250. Duration: 315625
13947824375: global: Timer #2 started at tick 13947824375
13948206250: global: Timer #2 stopped at tick 13948206250. Duration: 381875
13970948750: global: Timer #2 started at tick 13970948750
13971765625: global: Timer #2 stopped at tick 13971765625. Duration: 816875
14009744500: system.acctest.elem_matrix0_dma: SRC:0x00000000826365c0, DST:0x0000000024000020, LEN:65536
14021802500: system.acctest.elem_matrix0_dma: Transfer completed in 12.058 us
14024290875: system.acctest.elem_matrix1_dma: SRC:0x0000000082fe33c0, DST:0x0000000024100020, LEN:65536
14036247875: system.acctest.elem_matrix1_dma: Transfer completed in 11.957 us
14038065875: system.acctest.elem_matrix2_dma: SRC:0x00000000839901c0, DST:0x0000000024200020, LEN:65536
14050054875: system.acctest.elem_matrix2_dma: Transfer completed in 11.989 us
14051879500: system.acctest.elem_matrix3_dma: SRC:0x000000008433cfc0, DST:0x0000000024300020, LEN:65536
14057369500: system.acctest.isp0_dma: SRC:0x000000008232de80, DST:0x0000000027000020, LEN:16900
14057891875: global: Number of accelerators running = 5
14058439375: global: Timer #0 started at tick 14058439375
14058848750: global: Timer #1 started at tick 14058848750
14059602500: global: Timer #1 stopped at tick 14059602500. Duration: 753750
14062320500: system.acctest.isp0_dma: Transfer completed in 4.951 us
14065970500: system.acctest.elem_matrix3_dma: Transfer completed in 14.091 us
14074780875: system.acctest.elem_matrix0_dma: SRC:0x00000000824f6400, DST:0x0000000024010020, LEN:65536
14075391250: global: Timer #0 stopped at tick 14075391250. Duration: 16951875
14075410000: global: Number of accelerators running = 5
14075590000: global: Timer #0 started at tick 14075590000
14075632500: global: Timer #1 started at tick 14075632500
14075798125: global: Timer #1 stopped at tick 14075798125. Duration: 165625
14086716875: system.acctest.elem_matrix0_dma: Transfer completed in 11.936 us
14089431625: system.acctest.elem_matrix1_dma: SRC:0x0000000082ea3200, DST:0x0000000024110020, LEN:65536
14089696250: global: Timer #0 stopped at tick 14089696250. Duration: 14106250
14089710625: global: Number of accelerators running = 5
14089883750: global: Timer #0 started at tick 14089883750
14089926250: global: Timer #1 started at tick 14089926250
14090085625: global: Timer #1 stopped at tick 14090085625. Duration: 159375
14101431625: system.acctest.elem_matrix1_dma: Transfer completed in 12 us
14103664500: system.acctest.elem_matrix2_dma: SRC:0x0000000083850000, DST:0x0000000024210020, LEN:65536
14103902500: global: Timer #0 stopped at tick 14103902500. Duration: 14018750
14103916250: global: Number of accelerators running = 5
14104045625: global: Timer #0 started at tick 14104045625
14104088125: global: Timer #1 started at tick 14104088125
14104298125: global: Timer #1 stopped at tick 14104298125. Duration: 210000
14105846250: global: Timer #0 stopped at tick 14105846250. Duration: 1800625
14105860625: global: Number of accelerators running = 5
14105983750: global: Timer #0 started at tick 14105983750
14106026250: global: Timer #1 started at tick 14106026250
14106180625: global: Timer #1 stopped at tick 14106180625. Duration: 154375
14115845500: system.acctest.elem_matrix2_dma: Transfer completed in 12.181 us
14119788750: system.acctest.elem_matrix3_dma: SRC:0x00000000841fce00, DST:0x0000000024310020, LEN:65536
14120033125: global: Timer #0 stopped at tick 14120033125. Duration: 14049375
14120046875: global: Number of accelerators running = 5
14120172500: global: Timer #0 started at tick 14120172500
14120227500: global: Timer #1 started at tick 14120227500
14120378125: global: Timer #1 stopped at tick 14120378125. Duration: 150625
14122139375: global: Timer #0 stopped at tick 14122139375. Duration: 1966875
14122153750: global: Number of accelerators running = 5
14122259375: global: Timer #0 started at tick 14122259375
14122300625: global: Timer #1 started at tick 14122300625
14122451250: global: Timer #1 stopped at tick 14122451250. Duration: 150625
14124065625: global: Timer #0 stopped at tick 14124065625. Duration: 1806250
14124077500: global: Number of accelerators running = 5
14124198750: global: Timer #0 started at tick 14124198750
14124236875: global: Timer #1 started at tick 14124236875
14124388125: global: Timer #1 stopped at tick 14124388125. Duration: 151250
14125963125: global: Timer #0 stopped at tick 14125963125. Duration: 1764375
14125975000: global: Number of accelerators running = 5
14131782750: system.acctest.elem_matrix3_dma: Transfer completed in 11.994 us
14131871250: global: Timer #0 started at tick 14131871250
14131909375: global: Timer #1 started at tick 14131909375
14132051875: global: Timer #1 stopped at tick 14132051875. Duration: 142500
********************************************************************************
system.acctest.elem_matrix0.compute
   ========= Performance Analysis =============
   Setup Time:                      3.70872seconds
   Simulation Time:                 509.777seconds
   System Clock:                    1GHz
   Transistor Latency:              1ns
   Runtime:                         10932 cycles
   Runtime:                         10.932 us
   Stalls:                          0 cycles
   Executed Nodes:                  10931 cycles

********************************************************************************
   ========= Performance Analysis =================
   Setup Time:                      3.70872e+09ns
   Simulation Time:                 5.09777e+11ns
   System Clock:                    1GHz
   Transistor Latency:              0ns
   Runtime:                         10932 cycles
   Runtime:                         1.0932e-06 seconds
   Stalls:                          0 cycles
       Load Only:                   0 cycles
       Store Only:                  0 cycles
       Compute Only:                0 cycles
       Compute & Store:             0 cycles
       Load & Store:                0 cycles
       Load & Compute:              0 cycles
       Load & Compute & Store:      0 cycles
   Executed Nodes:                  10931 cycles
       Load Only:                   0 cycles
       Store Only:                  5 cycles
       Compute Only:                1 cycles
       Compute & Store:             21 cycles
       Load & Store:                0 cycles
       Load & Compute:              7 cycles
       Load & Compute & Store:      10897 cycles

   ========= Runtime FU's ========= (Max | Avg) ===
   Counter FU's:                      32 | 0.046838
   Integer Add/Sub FU's:               0 | 0.000000
   Integer Mul/Div FU's:               0 | 0.000000
   Integer Shifter FU's:               0 | 0.000000
   Integer Bitwise FU's:               1 | 0.000091
   Floating Point Float Add/Sub:      34 | 0.044252
   Floating Point Double Add/Sub:      0 | 0.000000
   Floating Point Float Mul/Div:       0 | 0.000000
   Floating Point Double Mul/Div:      0 | 0.000000
   0 Cycle Compare FU's:             102 | 0.046974
   GEP Instruction FU's:              96 | 0.046835
   Type Conversion FU's:               7 | 0.006782

   ========= Static FU's ==========================
   Counter FU's:                    0
   Integer Add/Sub FU's:            0
   Integer Mul/Div FU's:            0
   Integer Shifter FU's:            0
   Integer Bitwise FU's:            0
   Floating Point Float Add/Sub:    0
   Floating Point Double Add/Sub:   0
   Floating Point Float Mul/Div:    0
   Floating Point Double Mul/Div:   0
   0 Cycle Compare FU's:            0
   GEP Instruction FU's:            0
   Type Conversion FU's:            0
   Other:                           0

   ========= Pipeline Register Usage =============
   Total Number of Registers:       5641
   Max Register Usage Per Cycle:    138
   Avg Register Usage Per Cycle:    12.130992
   Avg Register Size (Bytes):       5.980606

   ========= Memory Configuration =================
   Cache Bus Ports:                 0
   Shared Cache Size:               0kB
   Local Bus Ports:                 0
   Private SPM Size:                256kB
   Private Read Ports:              0
   Private Write Ports:             0
   Private Read Bus Width:          64
   Private Write Bus Width:         64
       Memory Reads:                0
       Memory Writes:               0
   ========= Power Analysis ======================
   FU Leakage Power:                0.519269 mW 
   FU Dynamic Power:                0.154621 mW 
   FU Total Power:                  0.673890 mW 

   Registers Leakage Power:          0.005281 mW 
   Registers Dynamic Power:          0.015326 mW 
       Register Reads (Bits):        132616
       Register Writes (Bits):       133658
   Registers Total Power:            0.020607 mW

   SPM Leakage Power:               0.104100 mW
   SPM Read Dynamic Power:          1.997266 mW
   SPM Write Dynamic Power:         0.953321 mW
   SPM Total Power:                 3.054688 mW

   Cache Leakage Power:             0.000000 mW
   Cache Read Dynamic Power:        0.000000 mW
   Cache Write Dynamic Power:       0.000000 mW
   Cache Total Power:               0.000000 mW

   Accelerator Power:               0.694497 mW
   Accelerator Power (SPM):         3.749184 mW
   Accelerator Power (Cache):       0.694497 mW

   ========= Area Analysis =======================
   FU Area:                         70212.562500 um^2 (0.070213 mm^2)
   Register Area:                   429.271088 um^2 (0.000429 mm^2)
   SPM Area:                        2177.365505 um^2 (0.002177 mm^2)
   Cache Area:                      0.000000 um^2 (0.000000 mm^2)

   Accelerator Area:                70641.835938 um^2 (0.070642 mm^2)
   Accelerator Area (SPM):          72819.201442 um^2 (0.072819 mm^2)
   Accelerator Area (Cache):        70641.835938 um^2 (0.070642 mm^2)

   ========= SPM Resizing  =======================
   SPM Optimized Leakage Power:     0.004248 mW
   SPM Opt Area:                    178.524902 um^2

14133610625: global: Timer #0 stopped at tick 14133610625. Duration: 1739375
14133622500: global: Number of accelerators running = 5
14133743750: global: Timer #0 started at tick 14133743750
14134209375: global: Timer #3 started at tick 14134209375
14134522500: global: Timer #3 stopped at tick 14134522500. Duration: 313125
********************************************************************************
system.acctest.elem_matrix1.compute
   ========= Performance Analysis =============
   Setup Time:                      3.647956seconds
   Simulation Time:                 563.770779seconds
   System Clock:                    1.000000GHz
   Transistor Latency:              1ns
   Runtime:                         10932 cycles
   Runtime:                         10.932000 us
   Stalls:                          0 cycles
   Executed Nodes:                  10931 cycles

********************************************************************************
   ========= Performance Analysis =================
   Setup Time:                      3647956221.000000ns
   Simulation Time:                 563770779252.000000ns
   System Clock:                    1.000000GHz
   Transistor Latency:              0ns
   Runtime:                         10932 cycles
   Runtime:                         0.000001 seconds
   Stalls:                          0 cycles
       Load Only:                   0 cycles
       Store Only:                  0 cycles
       Compute Only:                0 cycles
       Compute & Store:             0 cycles
       Load & Store:                0 cycles
       Load & Compute:              0 cycles
       Load & Compute & Store:      0 cycles
   Executed Nodes:                  10931 cycles
       Load Only:                   0 cycles
       Store Only:                  5 cycles
       Compute Only:                1 cycles
       Compute & Store:             21 cycles
       Load & Store:                0 cycles
       Load & Compute:              7 cycles
       Load & Compute & Store:      10897 cycles

   ========= Runtime FU's ========= (Max | Avg) ===
   Counter FU's:                      32 | 0.046838
   Integer Add/Sub FU's:               0 | 0.000000
   Integer Mul/Div FU's:               0 | 0.000000
   Integer Shifter FU's:               0 | 0.000000
   Integer Bitwise FU's:               1 | 0.000091
   Floating Point Float Add/Sub:      34 | 0.044252
   Floating Point Double Add/Sub:      0 | 0.000000
   Floating Point Float Mul/Div:       0 | 0.000000
   Floating Point Double Mul/Div:      0 | 0.000000
   0 Cycle Compare FU's:             102 | 0.046974
   GEP Instruction FU's:              96 | 0.046835
   Type Conversion FU's:               7 | 0.006782

   ========= Static FU's ==========================
   Counter FU's:                    0
   Integer Add/Sub FU's:            0
   Integer Mul/Div FU's:            0
   Integer Shifter FU's:            0
   Integer Bitwise FU's:            0
   Floating Point Float Add/Sub:    0
   Floating Point Double Add/Sub:   0
   Floating Point Float Mul/Div:    0
   Floating Point Double Mul/Div:   0
   0 Cycle Compare FU's:            0
   GEP Instruction FU's:            0
   Type Conversion FU's:            0
   Other:                           0

   ========= Pipeline Register Usage =============
   Total Number of Registers:       5641
   Max Register Usage Per Cycle:    138
   Avg Register Usage Per Cycle:    12.130992
   Avg Register Size (Bytes):       5.980606

   ========= Memory Configuration =================
   Cache Bus Ports:                 0
   Shared Cache Size:               0kB
   Local Bus Ports:                 0
   Private SPM Size:                256kB
   Private Read Ports:              0
   Private Write Ports:             0
   Private Read Bus Width:          64
   Private Write Bus Width:         64
       Memory Reads:                0
       Memory Writes:               0
   ========= Power Analysis ======================
   FU Leakage Power:                0.519269 mW 
   FU Dynamic Power:                0.154621 mW 
   FU Total Power:                  0.673890 mW 

   Registers Leakage Power:          0.005281 mW 
   Registers Dynamic Power:          0.015326 mW 
       Register Reads (Bits):        132616
       Register Writes (Bits):       133658
   Registers Total Power:            0.020607 mW

   SPM Leakage Power:               0.104100 mW
   SPM Read Dynamic Power:          1.997266 mW
   SPM Write Dynamic Power:         0.953321 mW
   SPM Total Power:                 3.054688 mW

   Cache Leakage Power:             0.000000 mW
   Cache Read Dynamic Power:        0.000000 mW
   Cache Write Dynamic Power:       0.000000 mW
   Cache Total Power:               0.000000 mW

   Accelerator Power:               0.694497 mW
   Accelerator Power (SPM):         3.749184 mW
   Accelerator Power (Cache):       0.694497 mW

   ========= Area Analysis =======================
   FU Area:                         70212.562500 um^2 (0.070213 mm^2)
   Register Area:                   429.271088 um^2 (0.000429 mm^2)
   SPM Area:                        2177.365505 um^2 (0.002177 mm^2)
   Cache Area:                      0.000000 um^2 (0.000000 mm^2)

   Accelerator Area:                70641.835938 um^2 (0.070642 mm^2)
   Accelerator Area (SPM):          72819.201442 um^2 (0.072819 mm^2)
   Accelerator Area (Cache):        70641.835938 um^2 (0.070642 mm^2)

   ========= SPM Resizing  =======================
   SPM Optimized Leakage Power:     0.004248 mW
   SPM Opt Area:                    178.524902 um^2

14134808750: global: Timer #3 started at tick 14134808750
14135113125: global: Timer #3 stopped at tick 14135113125. Duration: 304375
14135340000: global: Timer #3 started at tick 14135340000
14135542500: global: Timer #3 stopped at tick 14135542500. Duration: 202500
14135745000: global: Timer #3 started at tick 14135745000
14135927500: global: Timer #3 stopped at tick 14135927500. Duration: 182500
14136075000: global: Timer #2 started at tick 14136075000
14136595625: global: Timer #2 stopped at tick 14136595625. Duration: 520625
14136636250: global: Timer #2 started at tick 14136636250
********************************************************************************
system.acctest.elem_matrix2.compute
   ========= Performance Analysis =============
   Setup Time:                      3.711937seconds
   Simulation Time:                 562.216266seconds
   System Clock:                    1.000000GHz
   Transistor Latency:              1ns
   Runtime:                         10932 cycles
   Runtime:                         10.932000 us
   Stalls:                          0 cycles
   Executed Nodes:                  10931 cycles

********************************************************************************
   ========= Performance Analysis =================
   Setup Time:                      3711936572.000000ns
   Simulation Time:                 562216266148.000000ns
   System Clock:                    1.000000GHz
   Transistor Latency:              0ns
   Runtime:                         10932 cycles
   Runtime:                         0.000001 seconds
   Stalls:                          0 cycles
       Load Only:                   0 cycles
       Store Only:                  0 cycles
       Compute Only:                0 cycles
       Compute & Store:             0 cycles
       Load & Store:                0 cycles
       Load & Compute:              0 cycles
       Load & Compute & Store:      0 cycles
   Executed Nodes:                  10931 cycles
       Load Only:                   0 cycles
       Store Only:                  5 cycles
       Compute Only:                1 cycles
       Compute & Store:             21 cycles
       Load & Store:                0 cycles
       Load & Compute:              7 cycles
       Load & Compute & Store:      10897 cycles

   ========= Runtime FU's ========= (Max | Avg) ===
   Counter FU's:                      32 | 0.046838
   Integer Add/Sub FU's:               0 | 0.000000
   Integer Mul/Div FU's:               0 | 0.000000
   Integer Shifter FU's:               0 | 0.000000
   Integer Bitwise FU's:               1 | 0.000091
   Floating Point Float Add/Sub:      34 | 0.044252
   Floating Point Double Add/Sub:      0 | 0.000000
   Floating Point Float Mul/Div:       0 | 0.000000
   Floating Point Double Mul/Div:      0 | 0.000000
   0 Cycle Compare FU's:             102 | 0.046974
   GEP Instruction FU's:              96 | 0.046835
   Type Conversion FU's:               7 | 0.006782

   ========= Static FU's ==========================
   Counter FU's:                    0
   Integer Add/Sub FU's:            0
   Integer Mul/Div FU's:            0
   Integer Shifter FU's:            0
   Integer Bitwise FU's:            0
   Floating Point Float Add/Sub:    0
   Floating Point Double Add/Sub:   0
   Floating Point Float Mul/Div:    0
   Floating Point Double Mul/Div:   0
   0 Cycle Compare FU's:            0
   GEP Instruction FU's:            0
   Type Conversion FU's:            0
   Other:                           0

   ========= Pipeline Register Usage =============
   Total Number of Registers:       5641
   Max Register Usage Per Cycle:    138
   Avg Register Usage Per Cycle:    12.130992
   Avg Register Size (Bytes):       5.980606

   ========= Memory Configuration =================
   Cache Bus Ports:                 0
   Shared Cache Size:               0kB
   Local Bus Ports:                 0
   Private SPM Size:                256kB
   Private Read Ports:              0
   Private Write Ports:             0
   Private Read Bus Width:          64
   Private Write Bus Width:         64
       Memory Reads:                0
       Memory Writes:               0
   ========= Power Analysis ======================
   FU Leakage Power:                0.519269 mW 
   FU Dynamic Power:                0.154621 mW 
   FU Total Power:                  0.673890 mW 

   Registers Leakage Power:          0.005281 mW 
   Registers Dynamic Power:          0.015326 mW 
       Register Reads (Bits):        132616
       Register Writes (Bits):       133658
   Registers Total Power:            0.020607 mW

   SPM Leakage Power:               0.104100 mW
   SPM Read Dynamic Power:          1.997266 mW
   SPM Write Dynamic Power:         0.953321 mW
   SPM Total Power:                 3.054688 mW

   Cache Leakage Power:             0.000000 mW
   Cache Read Dynamic Power:        0.000000 mW
   Cache Write Dynamic Power:       0.000000 mW
   Cache Total Power:               0.000000 mW

   Accelerator Power:               0.694497 mW
   Accelerator Power (SPM):         3.749184 mW
   Accelerator Power (Cache):       0.694497 mW

   ========= Area Analysis =======================
   FU Area:                         70212.562500 um^2 (0.070213 mm^2)
   Register Area:                   429.271088 um^2 (0.000429 mm^2)
   SPM Area:                        2177.365505 um^2 (0.002177 mm^2)
   Cache Area:                      0.000000 um^2 (0.000000 mm^2)

   Accelerator Area:                70641.835938 um^2 (0.070642 mm^2)
   Accelerator Area (SPM):          72819.201442 um^2 (0.072819 mm^2)
   Accelerator Area (Cache):        70641.835938 um^2 (0.070642 mm^2)

   ========= SPM Resizing  =======================
   SPM Optimized Leakage Power:     0.004248 mW
   SPM Opt Area:                    178.524902 um^2

14136922500: global: Timer #2 stopped at tick 14136922500. Duration: 286250
14136955000: global: Timer #2 started at tick 14136955000
14137189375: global: Timer #2 stopped at tick 14137189375. Duration: 234375
14137221875: global: Timer #2 started at tick 14137221875
14137508750: global: Timer #2 stopped at tick 14137508750. Duration: 286875
********************************************************************************
system.acctest.isp0.compute
   ========= Performance Analysis =============
   Setup Time:                      0.152243seconds
   Simulation Time:                 962.007694seconds
   System Clock:                    1.000000GHz
   Transistor Latency:              1ns
   Runtime:                         34882 cycles
   Runtime:                         34.882000 us
   Stalls:                          1 cycles
   Executed Nodes:                  34880 cycles

********************************************************************************
   ========= Performance Analysis =================
   Setup Time:                      152242712.000000ns
   Simulation Time:                 962007693734.000000ns
   System Clock:                    1.000000GHz
   Transistor Latency:              0ns
   Runtime:                         34882 cycles
   Runtime:                         0.000003 seconds
   Stalls:                          1 cycles
       Load Only:                   0 cycles
       Store Only:                  1 cycles
       Compute Only:                0 cycles
       Compute & Store:             0 cycles
       Load & Store:                0 cycles
       Load & Compute:              0 cycles
       Load & Compute & Store:      0 cycles
   Executed Nodes:                  34880 cycles
       Load Only:                   0 cycles
       Store Only:                  1 cycles
       Compute Only:                3453 cycles
       Compute & Store:             19014 cycles
       Load & Store:                0 cycles
       Load & Compute:              2467 cycles
       Load & Compute & Store:      9945 cycles

   ========= Runtime FU's ========= (Max | Avg) ===
   Counter FU's:                      10 | 0.118075
   Integer Add/Sub FU's:              76 | 0.082082
   Integer Mul/Div FU's:              11 | 0.043888
   Integer Shifter FU's:              42 | 0.055974
   Integer Bitwise FU's:               4 | 0.059443
   Floating Point Float Add/Sub:      53 | 0.116839
   Floating Point Double Add/Sub:      0 | 0.000000
   Floating Point Float Mul/Div:      76 | 0.625626
   Floating Point Double Mul/Div:      0 | 0.000000
   0 Cycle Compare FU's:              85 | 0.664984
   GEP Instruction FU's:              33 | 0.117424
   Type Conversion FU's:             110 | 0.379700

   ========= Static FU's ==========================
   Counter FU's:                    0
   Integer Add/Sub FU's:            0
   Integer Mul/Div FU's:            0
   Integer Shifter FU's:            0
   Integer Bitwise FU's:            0
   Floating Point Float Add/Sub:    0
   Floating Point Double Add/Sub:   0
   Floating Point Float Mul/Div:    0
   Floating Point Double Mul/Div:   0
   0 Cycle Compare FU's:            0
   GEP Instruction FU's:            0
   Type Conversion FU's:            0
   Other:                           0

   ========= Pipeline Register Usage =============
   Total Number of Registers:       1620
   Max Register Usage Per Cycle:    151
   Avg Register Usage Per Cycle:    58.744711
   Avg Register Size (Bytes):       5.073357

   ========= Memory Configuration =================
   Cache Bus Ports:                 0
   Shared Cache Size:               0kB
   Local Bus Ports:                 0
   Private SPM Size:                112kB
   Private Read Ports:              0
   Private Write Ports:             0
   Private Read Bus Width:          64
   Private Write Bus Width:         64
       Memory Reads:                0
       Memory Writes:               0
   ========= Power Analysis ======================
   FU Leakage Power:                1.637787 mW 
   FU Dynamic Power:                9.655087 mW 
   FU Total Power:                  11.292874 mW 

   Registers Leakage Power:          0.021654 mW 
   Registers Dynamic Power:          3.085961 mW 
       Register Reads (Bits):        2049133
       Register Writes (Bits):       2049168
   Registers Total Power:            3.107615 mW

   SPM Leakage Power:               0.061081 mW
   SPM Read Dynamic Power:          11.103730 mW
   SPM Write Dynamic Power:         7.385230 mW
   SPM Total Power:                 18.550041 mW

   Cache Leakage Power:             0.000000 mW
   Cache Read Dynamic Power:        0.000000 mW
   Cache Write Dynamic Power:       0.000000 mW
   Cache Total Power:               0.000000 mW

   Accelerator Power:               14.400490 mW
   Accelerator Power (SPM):         32.950531 mW
   Accelerator Power (Cache):       14.400490 mW

   ========= Area Analysis =======================
   FU Area:                         176023.796875 um^2 (0.176024 mm^2)
   Register Area:                   1760.064941 um^2 (0.001760 mm^2)
   SPM Area:                        2165.394891 um^2 (0.002165 mm^2)
   Cache Area:                      0.000000 um^2 (0.000000 mm^2)

   Accelerator Area:                177783.859375 um^2 (0.177784 mm^2)
   Accelerator Area (SPM):          179949.254266 um^2 (0.179949 mm^2)
   Accelerator Area (Cache):        177783.859375 um^2 (0.177784 mm^2)

   ========= SPM Resizing  =======================
   SPM Optimized Leakage Power:     0.005964 mW
   SPM Opt Area:                    422.108128 um^2

********************************************************************************
system.acctest.elem_matrix3.compute
   ========= Performance Analysis =============
   Setup Time:                      8.262467seconds
   Simulation Time:                 305.910064seconds
   System Clock:                    1.000000GHz
   Transistor Latency:              1ns
   Runtime:                         10932 cycles
   Runtime:                         10.932000 us
   Stalls:                          0 cycles
   Executed Nodes:                  10931 cycles

********************************************************************************
   ========= Performance Analysis =================
   Setup Time:                      8262467317.000001ns
   Simulation Time:                 305910064368.000000ns
   System Clock:                    1.000000GHz
   Transistor Latency:              0ns
   Runtime:                         10932 cycles
   Runtime:                         0.000001 seconds
   Stalls:                          0 cycles
       Load Only:                   0 cycles
       Store Only:                  0 cycles
       Compute Only:                0 cycles
       Compute & Store:             0 cycles
       Load & Store:                0 cycles
       Load & Compute:              0 cycles
       Load & Compute & Store:      0 cycles
   Executed Nodes:                  10931 cycles
       Load Only:                   0 cycles
       Store Only:                  5 cycles
       Compute Only:                1 cycles
       Compute & Store:             21 cycles
       Load & Store:                0 cycles
       Load & Compute:              7 cycles
       Load & Compute & Store:      10897 cycles

   ========= Runtime FU's ========= (Max | Avg) ===
   Counter FU's:                      32 | 0.046838
   Integer Add/Sub FU's:               0 | 0.000000
   Integer Mul/Div FU's:               0 | 0.000000
   Integer Shifter FU's:               0 | 0.000000
   Integer Bitwise FU's:               1 | 0.000091
   Floating Point Float Add/Sub:      34 | 0.044252
   Floating Point Double Add/Sub:      0 | 0.000000
   Floating Point Float Mul/Div:       0 | 0.000000
   Floating Point Double Mul/Div:      0 | 0.000000
   0 Cycle Compare FU's:             102 | 0.046974
   GEP Instruction FU's:              96 | 0.046835
   Type Conversion FU's:               7 | 0.006782

   ========= Static FU's ==========================
   Counter FU's:                    0
   Integer Add/Sub FU's:            0
   Integer Mul/Div FU's:            0
   Integer Shifter FU's:            0
   Integer Bitwise FU's:            0
   Floating Point Float Add/Sub:    0
   Floating Point Double Add/Sub:   0
   Floating Point Float Mul/Div:    0
   Floating Point Double Mul/Div:   0
   0 Cycle Compare FU's:            0
   GEP Instruction FU's:            0
   Type Conversion FU's:            0
   Other:                           0

   ========= Pipeline Register Usage =============
   Total Number of Registers:       5641
   Max Register Usage Per Cycle:    138
   Avg Register Usage Per Cycle:    12.130992
   Avg Register Size (Bytes):       5.980606

   ========= Memory Configuration =================
   Cache Bus Ports:                 0
   Shared Cache Size:               0kB
   Local Bus Ports:                 0
   Private SPM Size:                256kB
   Private Read Ports:              0
   Private Write Ports:             0
   Private Read Bus Width:          64
   Private Write Bus Width:         64
       Memory Reads:                0
       Memory Writes:               0
   ========= Power Analysis ======================
   FU Leakage Power:                0.519269 mW 
   FU Dynamic Power:                0.154621 mW 
   FU Total Power:                  0.673890 mW 

   Registers Leakage Power:          0.005281 mW 
   Registers Dynamic Power:          0.015326 mW 
       Register Reads (Bits):        132616
       Register Writes (Bits):       133658
   Registers Total Power:            0.020607 mW

   SPM Leakage Power:               0.104100 mW
   SPM Read Dynamic Power:          1.997266 mW
   SPM Write Dynamic Power:         0.953321 mW
   SPM Total Power:                 3.054688 mW

   Cache Leakage Power:             0.000000 mW
   Cache Read Dynamic Power:        0.000000 mW
   Cache Write Dynamic Power:       0.000000 mW
   Cache Total Power:               0.000000 mW

   Accelerator Power:               0.694497 mW
   Accelerator Power (SPM):         3.749184 mW
   Accelerator Power (Cache):       0.694497 mW

   ========= Area Analysis =======================
   FU Area:                         70212.562500 um^2 (0.070213 mm^2)
   Register Area:                   429.271088 um^2 (0.000429 mm^2)
   SPM Area:                        2177.365505 um^2 (0.002177 mm^2)
   Cache Area:                      0.000000 um^2 (0.000000 mm^2)

   Accelerator Area:                70641.835938 um^2 (0.070642 mm^2)
   Accelerator Area (SPM):          72819.201442 um^2 (0.072819 mm^2)
   Accelerator Area (Cache):        70641.835938 um^2 (0.070642 mm^2)

   ========= SPM Resizing  =======================
   SPM Optimized Leakage Power:     0.004248 mW
   SPM Opt Area:                    178.524902 um^2

14151535875: system.acctest.elem_matrix0_dma: SRC:0x0000000024020020, DST:0x0000000082506400, LEN:65536
14152082500: global: Timer #0 stopped at tick 14152082500. Duration: 18338750
14152096875: global: Number of accelerators running = 5
14152221250: global: Timer #0 started at tick 14152221250
14152795625: global: Timer #3 started at tick 14152795625
14153092500: global: Timer #3 stopped at tick 14153092500. Duration: 296875
14153536875: global: Timer #3 started at tick 14153536875
14153703750: global: Timer #3 stopped at tick 14153703750. Duration: 166875
14154548750: global: Timer #3 started at tick 14154548750
14154702500: global: Timer #3 stopped at tick 14154702500. Duration: 153750
14155251875: global: Timer #3 started at tick 14155251875
14155411875: global: Timer #3 stopped at tick 14155411875. Duration: 160000
14155462500: global: Timer #2 started at tick 14155462500
14155973750: global: Timer #2 stopped at tick 14155973750. Duration: 511250
14156006250: global: Timer #2 started at tick 14156006250
14156175625: global: Timer #4 started at tick 14156175625
14156216875: global: Timer #4 stopped at tick 14156216875. Duration: 41250
14156278750: global: Timer #4 started at tick 14156278750
14156311875: global: Timer #4 stopped at tick 14156311875. Duration: 33125
14156351875: global: Timer #4 started at tick 14156351875
14156378125: global: Timer #4 stopped at tick 14156378125. Duration: 26250
14156411250: global: Timer #4 started at tick 14156411250
14156437500: global: Timer #4 stopped at tick 14156437500. Duration: 26250
14156793750: global: Timer #2 stopped at tick 14156793750. Duration: 787500
14156833125: global: Timer #2 started at tick 14156833125
14157294375: global: Timer #2 stopped at tick 14157294375. Duration: 461250
14157326875: global: Timer #2 started at tick 14157326875
14158094375: global: Timer #2 stopped at tick 14158094375. Duration: 767500
14158343875: system.acctest.elem_matrix0_dma: Transfer completed in 6.808 us
14171335875: system.acctest.elem_matrix1_dma: SRC:0x0000000024120020, DST:0x0000000082eb3200, LEN:65536
14171750000: global: Timer #0 stopped at tick 14171750000. Duration: 19528750
14171764375: global: Number of accelerators running = 5
14171887500: global: Timer #0 started at tick 14171887500
14172460000: global: Timer #3 started at tick 14172460000
14172632500: global: Timer #3 stopped at tick 14172632500. Duration: 172500
14173055000: global: Timer #3 started at tick 14173055000
14173225000: global: Timer #3 stopped at tick 14173225000. Duration: 170000
14173945000: global: Timer #3 started at tick 14173945000
14174093750: global: Timer #3 stopped at tick 14174093750. Duration: 148750
14174633125: global: Timer #3 started at tick 14174633125
14174794375: global: Timer #3 stopped at tick 14174794375. Duration: 161250
14174845000: global: Timer #2 started at tick 14174845000
14175311875: global: Timer #4 started at tick 14175311875
14175387500: global: Timer #4 stopped at tick 14175387500. Duration: 75625
14175519375: global: Timer #2 stopped at tick 14175519375. Duration: 674375
14175551875: global: Timer #2 started at tick 14175551875
14175619375: global: Timer #4 started at tick 14175619375
14175660000: global: Timer #4 stopped at tick 14175660000. Duration: 40625
14175748750: global: Timer #4 started at tick 14175748750
14175781250: global: Timer #4 stopped at tick 14175781250. Duration: 32500
14175825625: global: Timer #4 started at tick 14175825625
14175858125: global: Timer #4 stopped at tick 14175858125. Duration: 32500
14175930625: global: Timer #4 started at tick 14175930625
14175963125: global: Timer #4 stopped at tick 14175963125. Duration: 32500
14176008125: global: Timer #4 started at tick 14176008125
14176040625: global: Timer #4 stopped at tick 14176040625. Duration: 32500
14176473750: global: Timer #2 stopped at tick 14176473750. Duration: 921875
14176506250: global: Timer #2 started at tick 14176506250
14176876250: global: Timer #2 stopped at tick 14176876250. Duration: 370000
14176908750: global: Timer #2 started at tick 14176908750
14177540625: global: Timer #2 stopped at tick 14177540625. Duration: 631875
14178066875: system.acctest.elem_matrix1_dma: Transfer completed in 6.731 us
14190802375: system.acctest.elem_matrix2_dma: SRC:0x0000000024220020, DST:0x0000000083860000, LEN:65536
14191181250: global: Timer #0 stopped at tick 14191181250. Duration: 19293750
14191195625: global: Number of accelerators running = 5
14191319375: global: Timer #0 started at tick 14191319375
14191885625: global: Timer #3 started at tick 14191885625
14192182500: global: Timer #3 stopped at tick 14192182500. Duration: 296875
14192240000: global: Timer #2 started at tick 14192240000
14192583750: global: Timer #2 stopped at tick 14192583750. Duration: 343750
14192877500: global: DAG ID = 4
14192941250: global: Node ID = 0
14192960000: global: Node deadline difference = -97
14192978125: global: Predicted memory time / byte = 0 us/byte
14192996250: global: Predicted memory time = 0 us
14193014375: global: Predicted memory time / byte = 0 us/byte
14193034375: global: Predicted memory time = 0 us
14193052500: global: Predicted memory time / byte = 0.00275402 us/byte
14193070625: global: Predicted memory time = 46 us
14193088750: global: Predicted memory time / byte = 0 us/byte
14193106875: global: Predicted memory time = 0 us
14194586000: system.acctest.grayscale0_dma: SRC:0x0000000027004224, DST:0x0000000025000020, LEN:49152
14200563000: system.acctest.isp0_dma: SRC:0x0000000082390040, DST:0x0000000027000020, LEN:16900
14200635375: system.acctest.elem_matrix2_dma: Transfer completed in 9.833 us
14200789375: global: Timer #0 stopped at tick 14200789375. Duration: 9470000
14200803750: global: Number of accelerators running = 6
14200919375: global: Timer #0 started at tick 14200919375
14201252500: global: Timer #3 started at tick 14201252500
14201405000: global: Timer #3 stopped at tick 14201405000. Duration: 152500
14201716875: global: Timer #3 started at tick 14201716875
14201878750: global: Timer #3 stopped at tick 14201878750. Duration: 161875
14202185000: global: Timer #3 started at tick 14202185000
14202325625: global: Timer #3 stopped at tick 14202325625. Duration: 140625
14202620000: global: Timer #3 started at tick 14202620000
14202760625: global: Timer #3 stopped at tick 14202760625. Duration: 140625
14202811250: global: Timer #2 started at tick 14202811250
14203186250: global: Timer #4 started at tick 14203186250
14203228125: global: Timer #4 stopped at tick 14203228125. Duration: 41875
14203542500: global: Timer #2 stopped at tick 14203542500. Duration: 731250
14203575000: global: Timer #2 started at tick 14203575000
14203642500: global: Timer #4 started at tick 14203642500
14203671250: global: Timer #4 stopped at tick 14203671250. Duration: 28750
14203711250: global: Timer #4 started at tick 14203711250
14203743750: global: Timer #4 stopped at tick 14203743750. Duration: 32500
14203845625: global: Timer #4 started at tick 14203845625
14203878125: global: Timer #4 stopped at tick 14203878125. Duration: 32500
14203930000: global: Timer #4 started at tick 14203930000
14203952000: system.acctest.isp0_dma: Transfer completed in 3.389 us
14203962500: global: Timer #4 stopped at tick 14203962500. Duration: 32500
14204322500: global: Timer #2 stopped at tick 14204322500. Duration: 747500
14204355000: global: Timer #2 started at tick 14204355000
14204678125: global: Timer #2 stopped at tick 14204678125. Duration: 323125
14204710625: global: Timer #2 started at tick 14204710625
14204871250: global: Timer #4 started at tick 14204871250
14204903750: global: Timer #4 stopped at tick 14204903750. Duration: 32500
14205344375: global: Timer #2 stopped at tick 14205344375. Duration: 633750
14206107000: system.acctest.grayscale0_dma: Transfer completed in 11.521 us
14218599500: system.acctest.elem_matrix3_dma: SRC:0x0000000024320020, DST:0x000000008420ce00, LEN:65536
14218963125: global: Timer #0 stopped at tick 14218963125. Duration: 18043750
14218977500: global: Number of accelerators running = 6
14219100000: global: Timer #0 started at tick 14219100000
14219257500: global: Timer #1 started at tick 14219257500
14219531250: global: Timer #1 stopped at tick 14219531250. Duration: 273750
14219922500: global: DAG ID = 8
14219941875: global: Node ID = 0
14220010000: global: Node deadline difference = -6775
14220028125: global: Predicted memory time / byte = 0 us/byte
14220046250: global: Predicted memory time = 0 us
14220064375: global: Predicted memory time / byte = 0 us/byte
14220084375: global: Predicted memory time = 0 us
14220102500: global: Predicted memory time / byte = 0.000717796 us/byte
14220120625: global: Predicted memory time = 93 us
14220138750: global: Predicted memory time / byte = 0.00103104 us/byte
14220158750: global: Predicted memory time = 67 us
14221938000: system.acctest.elem_matrix0_dma: SRC:0x0000000024320020, DST:0x0000000024000020, LEN:65536
14222202500: global: Timer #0 stopped at tick 14222202500. Duration: 3102500
14222216875: global: Number of accelerators running = 6
14222338125: global: Timer #0 started at tick 14222338125
14222383125: global: Timer #1 started at tick 14222383125
14222535625: global: Timer #1 stopped at tick 14222535625. Duration: 152500
14222850625: global: DAG ID = 9
14222864375: global: Node ID = 0
14222883750: global: Node deadline difference = -6772
14222896250: global: Predicted memory time / byte = 0 us/byte
14222908750: global: Predicted memory time = 0 us
14222921250: global: Predicted memory time / byte = 0 us/byte
14222933750: global: Predicted memory time = 0 us
14222946250: global: Predicted memory time / byte = 0.000640434 us/byte
14222958750: global: Predicted memory time = 83 us
14222971250: global: Predicted memory time / byte = 0.00077684 us/byte
14222983750: global: Predicted memory time = 50 us
14224098000: system.acctest.elem_matrix1_dma: SRC:0x0000000024220020, DST:0x0000000024100020, LEN:65536
14224335000: global: Timer #0 stopped at tick 14224335000. Duration: 1996875
14224348750: global: Number of accelerators running = 6
14224471250: global: Timer #0 started at tick 14224471250
14224516250: global: Timer #1 started at tick 14224516250
14224665000: global: Timer #1 stopped at tick 14224665000. Duration: 148750
14225175625: global: DAG ID = 10
14225189375: global: Node ID = 0
14225208750: global: Node deadline difference = -6769
14225221250: global: Predicted memory time / byte = 0 us/byte
14225233750: global: Predicted memory time = 0 us
14225246250: global: Predicted memory time / byte = 0 us/byte
14225258750: global: Predicted memory time = 0 us
14225271250: global: Predicted memory time / byte = 0.000550636 us/byte
14225283750: global: Predicted memory time = 71 us
14225296250: global: Predicted memory time / byte = 0.000512329 us/byte
14225308750: global: Predicted memory time = 33 us
14226396000: system.acctest.elem_matrix2_dma: SRC:0x0000000024120020, DST:0x0000000024200020, LEN:65536
14226638750: global: Timer #0 stopped at tick 14226638750. Duration: 2167500
14226652500: global: Number of accelerators running = 6
14226774375: global: Timer #0 started at tick 14226774375
14226823125: global: Timer #1 started at tick 14226823125
14227025000: global: Timer #1 stopped at tick 14227025000. Duration: 201875
14228215000: global: Timer #0 stopped at tick 14228215000. Duration: 1440625
14228226875: global: Number of accelerators running = 6
14228346875: global: Timer #0 started at tick 14228346875
14228382500: global: Timer #1 started at tick 14228382500
14228571250: global: Timer #1 stopped at tick 14228571250. Duration: 188750
14229971250: global: Timer #0 stopped at tick 14229971250. Duration: 1624375
14229985625: global: Number of accelerators running = 6
14232885500: system.acctest.elem_matrix3_dma: Transfer completed in 14.286 us
14232973125: global: Timer #0 started at tick 14232973125
14233026250: global: Timer #1 started at tick 14233026250
14233179375: global: Timer #1 stopped at tick 14233179375. Duration: 153125
14233502500: global: DAG ID = 11
14233516250: global: Node ID = 0
14233535625: global: Node deadline difference = -6761
14233548125: global: Predicted memory time / byte = 0 us/byte
14233560625: global: Predicted memory time = 0 us
14233573125: global: Predicted memory time / byte = 0 us/byte
14233585625: global: Predicted memory time = 0 us
14233598125: global: Predicted memory time / byte = 0.000503593 us/byte
14233610625: global: Predicted memory time = 65 us
14233623125: global: Predicted memory time / byte = 0.000218033 us/byte
14233635625: global: Predicted memory time = 14 us
14234753000: system.acctest.elem_matrix3_dma: SRC:0x0000000024020020, DST:0x0000000024300020, LEN:65536
14235012500: global: Timer #0 stopped at tick 14235012500. Duration: 2039375
14235026250: global: Number of accelerators running = 6
********************************************************************************
system.acctest.grayscale0.compute
   ========= Performance Analysis =============
   Setup Time:                      0.014481seconds
   Simulation Time:                 306.782250seconds
   System Clock:                    1.000000GHz
   Transistor Latency:              1ns
   Runtime:                         10263 cycles
   Runtime:                         10.263000 us
   Stalls:                          1 cycles
   Executed Nodes:                  10261 cycles

********************************************************************************
   ========= Performance Analysis =================
   Setup Time:                      14481104.000000ns
   Simulation Time:                 306782250420.000000ns
   System Clock:                    1.000000GHz
   Transistor Latency:              0ns
   Runtime:                         10263 cycles
   Runtime:                         0.000001 seconds
   Stalls:                          1 cycles
       Load Only:                   0 cycles
       Store Only:                  1 cycles
       Compute Only:                0 cycles
       Compute & Store:             0 cycles
       Load & Store:                0 cycles
       Load & Compute:              0 cycles
       Load & Compute & Store:      0 cycles
   Executed Nodes:                  10261 cycles
       Load Only:                   0 cycles
       Store Only:                  1 cycles
       Compute Only:                88 cycles
       Compute & Store:             344 cycles
       Load & Store:                0 cycles
       Load & Compute:              1981 cycles
       Load & Compute & Store:      7847 cycles

   ========= Runtime FU's ========= (Max | Avg) ===
   Counter FU's:                      24 | 0.199556
   Integer Add/Sub FU's:               0 | 0.000000
   Integer Mul/Div FU's:               8 | 0.199552
   Integer Shifter FU's:               0 | 0.000000
   Integer Bitwise FU's:               1 | 0.000097
   Floating Point Float Add/Sub:      49 | 0.114264
   Floating Point Double Add/Sub:      0 | 0.000000
   Floating Point Float Mul/Div:      42 | 0.114129
   Floating Point Double Mul/Div:      0 | 0.000000
   0 Cycle Compare FU's:               9 | 0.066626
   GEP Instruction FU's:              36 | 0.177452
   Type Conversion FU's:              76 | 0.401969

   ========= Static FU's ==========================
   Counter FU's:                    0
   Integer Add/Sub FU's:            0
   Integer Mul/Div FU's:            0
   Integer Shifter FU's:            0
   Integer Bitwise FU's:            0
   Floating Point Float Add/Sub:    0
   Floating Point Double Add/Sub:   0
   Floating Point Float Mul/Div:    0
   Floating Point Double Mul/Div:   0
   0 Cycle Compare FU's:            0
   GEP Instruction FU's:            0
   Type Conversion FU's:            0
   Other:                           0

   ========= Pipeline Register Usage =============
   Total Number of Registers:       235
   Max Register Usage Per Cycle:    90
   Avg Register Usage Per Cycle:    33.924291
   Avg Register Size (Bytes):       5.841147

   ========= Memory Configuration =================
   Cache Bus Ports:                 0
   Shared Cache Size:               0kB
   Local Bus Ports:                 0
   Private SPM Size:                176kB
   Private Read Ports:              0
   Private Write Ports:             0
   Private Read Bus Width:          64
   Private Write Bus Width:         64
       Memory Reads:                0
       Memory Writes:               0
   ========= Power Analysis ======================
   FU Leakage Power:                1.178269 mW 
   FU Dynamic Power:                0.617392 mW 
   FU Total Power:                  1.795662 mW 

   Registers Leakage Power:          0.014185 mW 
   Registers Dynamic Power:          0.101057 mW 
       Register Reads (Bits):        348165
       Register Writes (Bits):       348168
   Registers Total Power:            0.115242 mW

   SPM Leakage Power:               0.089881 mW
   SPM Read Dynamic Power:          6.997296 mW
   SPM Write Dynamic Power:         2.062375 mW
   SPM Total Power:                 9.149552 mW

   Cache Leakage Power:             0.000000 mW
   Cache Read Dynamic Power:        0.000000 mW
   Cache Write Dynamic Power:       0.000000 mW
   Cache Total Power:               0.000000 mW

   Accelerator Power:               1.910904 mW
   Accelerator Power (SPM):         11.060456 mW
   Accelerator Power (Cache):       1.910904 mW

   ========= Area Analysis =======================
   FU Area:                         143348.187500 um^2 (0.143348 mm^2)
   Register Area:                   1152.968140 um^2 (0.001153 mm^2)
   SPM Area:                        3573.642862 um^2 (0.003574 mm^2)
   Cache Area:                      0.000000 um^2 (0.000000 mm^2)

   Accelerator Area:                144501.156250 um^2 (0.144501 mm^2)
   Accelerator Area (SPM):          148074.799112 um^2 (0.148075 mm^2)
   Accelerator Area (Cache):        144501.156250 um^2 (0.144501 mm^2)

   ========= SPM Resizing  =======================
   SPM Optimized Leakage Power:     0.003633 mW
   SPM Opt Area:                    364.024374 um^2

14239899375: global: Timer #0 started at tick 14239899375
14240391875: global: Timer #3 started at tick 14240391875
14240643125: global: Timer #3 stopped at tick 14240643125. Duration: 251250
14241363125: global: Timer #2 started at tick 14241363125
14242084375: global: Timer #2 stopped at tick 14242084375. Duration: 721250
14252049000: system.acctest.elem_matrix0_dma: Transfer completed in 30.111 us
14254957000: system.acctest.elem_matrix1_dma: Transfer completed in 30.859 us
14255576000: system.acctest.grayscale0_dma: SRC:0x000000002500c020, DST:0x000000008233e240, LEN:65536
14257397000: system.acctest.convolution0_dma: SRC:0x000000002500c020, DST:0x0000000022000020, LEN:65536
14257878750: global: Timer #0 stopped at tick 14257878750. Duration: 17979375
14257893125: global: Number of accelerators running = 7
14258008750: global: Timer #0 started at tick 14258008750
14258058750: global: Timer #1 started at tick 14258058750
14258218750: global: Timer #1 stopped at tick 14258218750. Duration: 160000
14258404000: system.acctest.elem_matrix2_dma: Transfer completed in 32.008 us
14262408000: system.acctest.elem_matrix3_dma: Transfer completed in 27.655 us
********************************************************************************
system.acctest.isp0.compute
   ========= Performance Analysis =============
   Setup Time:                      0.505796seconds
   Simulation Time:                 702.164071seconds
   System Clock:                    1.000000GHz
   Transistor Latency:              1ns
   Runtime:                         34882 cycles
   Runtime:                         34.882000 us
   Stalls:                          1 cycles
   Executed Nodes:                  34880 cycles

********************************************************************************
   ========= Performance Analysis =================
   Setup Time:                      505795732.000000ns
   Simulation Time:                 702164071184.000000ns
   System Clock:                    1.000000GHz
   Transistor Latency:              0ns
   Runtime:                         34882 cycles
   Runtime:                         0.000003 seconds
   Stalls:                          1 cycles
       Load Only:                   0 cycles
       Store Only:                  1 cycles
       Compute Only:                0 cycles
       Compute & Store:             0 cycles
       Load & Store:                0 cycles
       Load & Compute:              0 cycles
       Load & Compute & Store:      0 cycles
   Executed Nodes:                  34880 cycles
       Load Only:                   0 cycles
       Store Only:                  1 cycles
       Compute Only:                3453 cycles
       Compute & Store:             19014 cycles
       Load & Store:                0 cycles
       Load & Compute:              2467 cycles
       Load & Compute & Store:      9945 cycles

   ========= Runtime FU's ========= (Max | Avg) ===
   Counter FU's:                      10 | 0.118075
   Integer Add/Sub FU's:              76 | 0.082082
   Integer Mul/Div FU's:              11 | 0.043888
   Integer Shifter FU's:              42 | 0.055974
   Integer Bitwise FU's:               4 | 0.059443
   Floating Point Float Add/Sub:      53 | 0.116839
   Floating Point Double Add/Sub:      0 | 0.000000
   Floating Point Float Mul/Div:      76 | 0.625626
   Floating Point Double Mul/Div:      0 | 0.000000
   0 Cycle Compare FU's:              85 | 0.664984
   GEP Instruction FU's:              33 | 0.117424
   Type Conversion FU's:             110 | 0.379700

   ========= Static FU's ==========================
   Counter FU's:                    0
   Integer Add/Sub FU's:            0
   Integer Mul/Div FU's:            0
   Integer Shifter FU's:            0
   Integer Bitwise FU's:            0
   Floating Point Float Add/Sub:    0
   Floating Point Double Add/Sub:   0
   Floating Point Float Mul/Div:    0
   Floating Point Double Mul/Div:   0
   0 Cycle Compare FU's:            0
   GEP Instruction FU's:            0
   Type Conversion FU's:            0
   Other:                           0

   ========= Pipeline Register Usage =============
   Total Number of Registers:       1620
   Max Register Usage Per Cycle:    151
   Avg Register Usage Per Cycle:    58.744711
   Avg Register Size (Bytes):       5.073357

   ========= Memory Configuration =================
   Cache Bus Ports:                 0
   Shared Cache Size:               0kB
   Local Bus Ports:                 0
   Private SPM Size:                112kB
   Private Read Ports:              0
   Private Write Ports:             0
   Private Read Bus Width:          64
   Private Write Bus Width:         64
       Memory Reads:                0
       Memory Writes:               0
   ========= Power Analysis ======================
   FU Leakage Power:                1.637787 mW 
   FU Dynamic Power:                9.655087 mW 
   FU Total Power:                  11.292874 mW 

   Registers Leakage Power:          0.021654 mW 
   Registers Dynamic Power:          3.085961 mW 
       Register Reads (Bits):        2049133
       Register Writes (Bits):       2049168
   Registers Total Power:            3.107615 mW

   SPM Leakage Power:               0.061081 mW
   SPM Read Dynamic Power:          15.102444 mW
   SPM Write Dynamic Power:         10.618341 mW
   SPM Total Power:                 25.781867 mW

   Cache Leakage Power:             0.000000 mW
   Cache Read Dynamic Power:        0.000000 mW
   Cache Write Dynamic Power:       0.000000 mW
   Cache Total Power:               0.000000 mW

   Accelerator Power:               14.400490 mW
   Accelerator Power (SPM):         40.182357 mW
   Accelerator Power (Cache):       14.400490 mW

   ========= Area Analysis =======================
   FU Area:                         176023.796875 um^2 (0.176024 mm^2)
   Register Area:                   1760.064941 um^2 (0.001760 mm^2)
   SPM Area:                        2165.394891 um^2 (0.002165 mm^2)
   Cache Area:                      0.000000 um^2 (0.000000 mm^2)

   Accelerator Area:                177783.859375 um^2 (0.177784 mm^2)
   Accelerator Area (SPM):          179949.254266 um^2 (0.179949 mm^2)
   Accelerator Area (Cache):        177783.859375 um^2 (0.177784 mm^2)

   ========= SPM Resizing  =======================
   SPM Optimized Leakage Power:     0.005964 mW
   SPM Opt Area:                    422.108128 um^2

14272592000: system.acctest.elem_matrix0_dma: SRC:0x0000000082476400, DST:0x0000000024010020, LEN:65536
14272836250: global: Timer #0 stopped at tick 14272836250. Duration: 14827500
14272848125: global: Number of accelerators running = 7
14272970625: global: Timer #0 started at tick 14272970625
14273018750: global: Timer #1 started at tick 14273018750
14273173125: global: Timer #1 stopped at tick 14273173125. Duration: 154375
14273250000: system.acctest.grayscale0_dma: Transfer completed in 17.674 us
14274899000: system.acctest.convolution0_dma: Transfer completed in 17.502 us
14284882000: system.acctest.elem_matrix0_dma: Transfer completed in 12.29 us
14286730875: system.acctest.elem_matrix1_dma: SRC:0x0000000082476400, DST:0x0000000024110020, LEN:65536
14286970000: global: Timer #0 stopped at tick 14286970000. Duration: 13999375
14286981875: global: Number of accelerators running = 7
14287098125: global: Timer #0 started at tick 14287098125
14287133750: global: Timer #1 started at tick 14287133750
14287276250: global: Timer #1 stopped at tick 14287276250. Duration: 142500
14298673875: system.acctest.elem_matrix1_dma: Transfer completed in 11.943 us
14300888750: system.acctest.elem_matrix2_dma: SRC:0x0000000082476400, DST:0x0000000024210020, LEN:65536
14301121875: global: Timer #0 stopped at tick 14301121875. Duration: 14023750
14301133125: global: Number of accelerators running = 7
14301255625: global: Timer #0 started at tick 14301255625
14301291250: global: Timer #1 started at tick 14301291250
14301433750: global: Timer #1 stopped at tick 14301433750. Duration: 142500
14312881750: system.acctest.elem_matrix2_dma: Transfer completed in 11.993 us
14315000875: system.acctest.elem_matrix3_dma: SRC:0x0000000082476400, DST:0x0000000024310020, LEN:65536
14315233750: global: Timer #0 stopped at tick 14315233750. Duration: 13978125
14315245000: global: Number of accelerators running = 7
14315362500: global: Timer #0 started at tick 14315362500
14315798750: global: Timer #3 started at tick 14315798750
14316071250: global: Timer #3 stopped at tick 14316071250. Duration: 272500
14316133750: global: Timer #2 started at tick 14316133750
14316578125: global: Timer #2 stopped at tick 14316578125. Duration: 444375
14326722375: system.acctest.isp0_dma: SRC:0x0000000027010224, DST:0x0000000082394280, LEN:49152
14327130625: global: Timer #0 stopped at tick 14327130625. Duration: 11768125
14327145000: global: Number of accelerators running = 7
14327165875: system.acctest.elem_matrix3_dma: Transfer completed in 12.165 us
14327261250: global: Timer #0 started at tick 14327261250
14327319375: global: Timer #1 started at tick 14327319375
14327476250: global: Timer #1 stopped at tick 14327476250. Duration: 156875
14327786250: global: DAG ID = 4
14327800000: global: Node ID = 1
14327921250: global: Node deadline difference = -16334
14327933750: global: Predicted memory time / byte = 0.000182999 us/byte
14327946250: global: Predicted memory time = 20.9878 us
14327958750: global: Predicted memory time / byte = 0.000182999 us/byte
14327971250: global: Predicted memory time = 20.9878 us
14327983750: global: Predicted memory time / byte = 0.000684001 us/byte
14327996250: global: Predicted memory time = 33 us
14328008750: global: Predicted memory time / byte = 0.00109238 us/byte
14328021250: global: Predicted memory time = 71 us
14332237375: system.acctest.isp0_dma: Transfer completed in 5.515 us
14338758750: system.acctest.grayscale0_dma: SRC:0x0000000082394280, DST:0x0000000025000020, LEN:49152
14339029375: global: Timer #0 stopped at tick 14339029375. Duration: 11768125
14339043750: global: Number of accelerators running = 7
14339168125: global: Timer #0 started at tick 14339168125
14339216250: global: Timer #1 started at tick 14339216250
14339372500: global: Timer #1 stopped at tick 14339372500. Duration: 156250
14340823750: system.acctest.convolution0_dma: SRC:0x00000000822edb80, DST:0x0000000022030020, LEN:100
14340949750: system.acctest.convolution0_dma: Transfer completed in 0.126 us
14341091250: global: Timer #0 stopped at tick 14341091250. Duration: 1923125
14341105625: global: Number of accelerators running = 7
14341232500: global: Timer #0 started at tick 14341232500
14341270625: global: Timer #1 started at tick 14341270625
14341413125: global: Timer #1 stopped at tick 14341413125. Duration: 142500
14343081250: global: Timer #0 stopped at tick 14343081250. Duration: 1848750
14343092500: global: Number of accelerators running = 7
14343210625: global: Timer #0 started at tick 14343210625
14343255625: global: Timer #1 started at tick 14343255625
14343398125: global: Timer #1 stopped at tick 14343398125. Duration: 142500
14345011875: global: Timer #0 stopped at tick 14345011875. Duration: 1801250
14345023750: global: Number of accelerators running = 7
14345141250: global: Timer #0 started at tick 14345141250
14345179375: global: Timer #1 started at tick 14345179375
14345321875: global: Timer #1 stopped at tick 14345321875. Duration: 142500
14346935625: global: Timer #0 stopped at tick 14346935625. Duration: 1794375
14346946875: global: Number of accelerators running = 7
14347064375: global: Timer #0 started at tick 14347064375
14347102500: global: Timer #1 started at tick 14347102500
14347245000: global: Timer #1 stopped at tick 14347245000. Duration: 142500
14347646750: system.acctest.grayscale0_dma: Transfer completed in 8.888 us
14348854375: global: Timer #0 stopped at tick 14348854375. Duration: 1790000
14348865625: global: Number of accelerators running = 7
14348983125: global: Timer #0 started at tick 14348983125
14349028125: global: Timer #1 started at tick 14349028125
14349236875: global: Timer #1 stopped at tick 14349236875. Duration: 208750
14349592500: global: DAG ID = 5
14349606250: global: Node ID = 0
14349625625: global: Node deadline difference = -16312
14349638125: global: Predicted memory time / byte = 0 us/byte
14349650625: global: Predicted memory time = 0 us
14349663125: global: Predicted memory time / byte = 0.000182999 us/byte
14349675625: global: Predicted memory time = 12.0874 us
14349688125: global: Predicted memory time / byte = 0.00154562 us/byte
14349700625: global: Predicted memory time = 26 us
14349713125: global: Predicted memory time / byte = 0.000450826 us/byte
14349725625: global: Predicted memory time = 22 us
********************************************************************************
system.acctest.elem_matrix0.compute
   ========= Performance Analysis =============
   Setup Time:                      8.666954seconds
   Simulation Time:                 381.676062seconds
   System Clock:                    1.000000GHz
   Transistor Latency:              1ns
   Runtime:                         10932 cycles
   Runtime:                         10.932000 us
   Stalls:                          1 cycles
   Executed Nodes:                  10930 cycles

********************************************************************************
   ========= Performance Analysis =================
   Setup Time:                      8666953803.000000ns
   Simulation Time:                 381676061648.000000ns
   System Clock:                    1.000000GHz
   Transistor Latency:              0ns
   Runtime:                         10932 cycles
   Runtime:                         0.000001 seconds
   Stalls:                          1 cycles
       Load Only:                   0 cycles
       Store Only:                  1 cycles
       Compute Only:                0 cycles
       Compute & Store:             0 cycles
       Load & Store:                0 cycles
       Load & Compute:              0 cycles
       Load & Compute & Store:      0 cycles
   Executed Nodes:                  10930 cycles
       Load Only:                   0 cycles
       Store Only:                  4 cycles
       Compute Only:                1 cycles
       Compute & Store:             21 cycles
       Load & Store:                0 cycles
       Load & Compute:              6 cycles
       Load & Compute & Store:      10898 cycles

   ========= Runtime FU's ========= (Max | Avg) ===
   Counter FU's:                      32 | 0.046838
   Integer Add/Sub FU's:               0 | 0.000000
   Integer Mul/Div FU's:               0 | 0.000000
   Integer Shifter FU's:               0 | 0.000000
   Integer Bitwise FU's:               1 | 0.000091
   Floating Point Float Add/Sub:       0 | 0.000000
   Floating Point Double Add/Sub:      0 | 0.000000
   Floating Point Float Mul/Div:      34 | 0.044252
   Floating Point Double Mul/Div:      0 | 0.000000
   0 Cycle Compare FU's:             102 | 0.046945
   GEP Instruction FU's:              96 | 0.046835
   Type Conversion FU's:               7 | 0.006782

   ========= Static FU's ==========================
   Counter FU's:                    0
   Integer Add/Sub FU's:            0
   Integer Mul/Div FU's:            0
   Integer Shifter FU's:            0
   Integer Bitwise FU's:            0
   Floating Point Float Add/Sub:    0
   Floating Point Double Add/Sub:   0
   Floating Point Float Mul/Div:    0
   Floating Point Double Mul/Div:   0
   0 Cycle Compare FU's:            0
   GEP Instruction FU's:            0
   Type Conversion FU's:            0
   Other:                           0

   ========= Pipeline Register Usage =============
   Total Number of Registers:       5641
   Max Register Usage Per Cycle:    137
   Avg Register Usage Per Cycle:    12.130992
   Avg Register Size (Bytes):       5.980606

   ========= Memory Configuration =================
   Cache Bus Ports:                 0
   Shared Cache Size:               0kB
   Local Bus Ports:                 0
   Private SPM Size:                256kB
   Private Read Ports:              0
   Private Write Ports:             0
   Private Read Bus Width:          64
   Private Write Bus Width:         64
       Memory Reads:                0
       Memory Writes:               0
   ========= Power Analysis ======================
   FU Leakage Power:                0.045377 mW 
   FU Dynamic Power:                0.142576 mW 
   FU Total Power:                  0.187953 mW 

   Registers Leakage Power:          0.005281 mW 
   Registers Dynamic Power:          0.015326 mW 
       Register Reads (Bits):        132616
       Register Writes (Bits):       133658
   Registers Total Power:            0.020607 mW

   SPM Leakage Power:               0.104100 mW
   SPM Read Dynamic Power:          2.785289 mW
   SPM Write Dynamic Power:         2.044305 mW
   SPM Total Power:                 4.933694 mW

   Cache Leakage Power:             0.000000 mW
   Cache Read Dynamic Power:        0.000000 mW
   Cache Write Dynamic Power:       0.000000 mW
   Cache Total Power:               0.000000 mW

   Accelerator Power:               0.208559 mW
   Accelerator Power (SPM):         5.142254 mW
   Accelerator Power (Cache):       0.208559 mW

   ========= Area Analysis =======================
   FU Area:                         5472.068359 um^2 (0.005472 mm^2)
   Register Area:                   429.271088 um^2 (0.000429 mm^2)
   SPM Area:                        2177.365505 um^2 (0.002177 mm^2)
   Cache Area:                      0.000000 um^2 (0.000000 mm^2)

   Accelerator Area:                5901.339355 um^2 (0.005901 mm^2)
   Accelerator Area (SPM):          8078.704860 um^2 (0.008079 mm^2)
   Accelerator Area (Cache):        5901.339355 um^2 (0.005901 mm^2)

   ========= SPM Resizing  =======================
   SPM Optimized Leakage Power:     0.004248 mW
   SPM Opt Area:                    178.524902 um^2

14354098750: system.acctest.isp0_dma: SRC:0x00000000823f2200, DST:0x0000000027000020, LEN:16900
14354628750: global: Timer #0 stopped at tick 14354628750. Duration: 5645625
14354644375: global: Number of accelerators running = 7
14354769375: global: Timer #0 started at tick 14354769375
********************************************************************************
system.acctest.elem_matrix1.compute
   ========= Performance Analysis =============
   Setup Time:                      7.327441seconds
   Simulation Time:                 415.648800seconds
   System Clock:                    1.000000GHz
   Transistor Latency:              1ns
   Runtime:                         10932 cycles
   Runtime:                         10.932000 us
   Stalls:                          1 cycles
   Executed Nodes:                  10930 cycles

********************************************************************************
   ========= Performance Analysis =================
   Setup Time:                      7327440966.000000ns
   Simulation Time:                 415648800261.000000ns
   System Clock:                    1.000000GHz
   Transistor Latency:              0ns
   Runtime:                         10932 cycles
   Runtime:                         0.000001 seconds
   Stalls:                          1 cycles
       Load Only:                   0 cycles
       Store Only:                  1 cycles
       Compute Only:                0 cycles
       Compute & Store:             0 cycles
       Load & Store:                0 cycles
       Load & Compute:              0 cycles
       Load & Compute & Store:      0 cycles
   Executed Nodes:                  10930 cycles
       Load Only:                   0 cycles
       Store Only:                  4 cycles
       Compute Only:                1 cycles
       Compute & Store:             21 cycles
       Load & Store:                0 cycles
       Load & Compute:              6 cycles
       Load & Compute & Store:      10898 cycles

   ========= Runtime FU's ========= (Max | Avg) ===
   Counter FU's:                      32 | 0.046838
   Integer Add/Sub FU's:               0 | 0.000000
   Integer Mul/Div FU's:               0 | 0.000000
   Integer Shifter FU's:               0 | 0.000000
   Integer Bitwise FU's:               1 | 0.000091
   Floating Point Float Add/Sub:       0 | 0.000000
   Floating Point Double Add/Sub:      0 | 0.000000
   Floating Point Float Mul/Div:      34 | 0.044252
   Floating Point Double Mul/Div:      0 | 0.000000
   0 Cycle Compare FU's:             102 | 0.046945
   GEP Instruction FU's:              96 | 0.046835
   Type Conversion FU's:               7 | 0.006782

   ========= Static FU's ==========================
   Counter FU's:                    0
   Integer Add/Sub FU's:            0
   Integer Mul/Div FU's:            0
   Integer Shifter FU's:            0
   Integer Bitwise FU's:            0
   Floating Point Float Add/Sub:    0
   Floating Point Double Add/Sub:   0
   Floating Point Float Mul/Div:    0
   Floating Point Double Mul/Div:   0
   0 Cycle Compare FU's:            0
   GEP Instruction FU's:            0
   Type Conversion FU's:            0
   Other:                           0

   ========= Pipeline Register Usage =============
   Total Number of Registers:       5641
   Max Register Usage Per Cycle:    137
   Avg Register Usage Per Cycle:    12.130992
   Avg Register Size (Bytes):       5.980606

   ========= Memory Configuration =================
   Cache Bus Ports:                 0
   Shared Cache Size:               0kB
   Local Bus Ports:                 0
   Private SPM Size:                256kB
   Private Read Ports:              0
   Private Write Ports:             0
   Private Read Bus Width:          64
   Private Write Bus Width:         64
       Memory Reads:                0
       Memory Writes:               0
   ========= Power Analysis ======================
   FU Leakage Power:                0.045377 mW 
   FU Dynamic Power:                0.142576 mW 
   FU Total Power:                  0.187953 mW 

   Registers Leakage Power:          0.005281 mW 
   Registers Dynamic Power:          0.015326 mW 
       Register Reads (Bits):        132616
       Register Writes (Bits):       133658
   Registers Total Power:            0.020607 mW

   SPM Leakage Power:               0.104100 mW
   SPM Read Dynamic Power:          2.785289 mW
   SPM Write Dynamic Power:         2.044305 mW
   SPM Total Power:                 4.933694 mW

   Cache Leakage Power:             0.000000 mW
   Cache Read Dynamic Power:        0.000000 mW
   Cache Write Dynamic Power:       0.000000 mW
   Cache Total Power:               0.000000 mW

   Accelerator Power:               0.208559 mW
   Accelerator Power (SPM):         5.142254 mW
   Accelerator Power (Cache):       0.208559 mW

   ========= Area Analysis =======================
   FU Area:                         5472.068359 um^2 (0.005472 mm^2)
   Register Area:                   429.271088 um^2 (0.000429 mm^2)
   SPM Area:                        2177.365505 um^2 (0.002177 mm^2)
   Cache Area:                      0.000000 um^2 (0.000000 mm^2)

   Accelerator Area:                5901.339355 um^2 (0.005901 mm^2)
   Accelerator Area (SPM):          8078.704860 um^2 (0.008079 mm^2)
   Accelerator Area (Cache):        5901.339355 um^2 (0.005901 mm^2)

   ========= SPM Resizing  =======================
   SPM Optimized Leakage Power:     0.004248 mW
   SPM Opt Area:                    178.524902 um^2

14356149375: global: Timer #0 stopped at tick 14356149375. Duration: 1380000
14356163750: global: Number of accelerators running = 7
14356280625: global: Timer #0 started at tick 14356280625
14356322500: global: Timer #1 started at tick 14356322500
14356519375: global: Timer #1 stopped at tick 14356519375. Duration: 196875
14357343750: system.acctest.isp0_dma: Transfer completed in 3.245 us
14357511250: global: Timer #0 stopped at tick 14357511250. Duration: 1230625
14357525625: global: Number of accelerators running = 7
********************************************************************************
system.acctest.elem_matrix2.compute
   ========= Performance Analysis =============
   Setup Time:                      4.076252seconds
   Simulation Time:                 415.064113seconds
   System Clock:                    1.000000GHz
   Transistor Latency:              1ns
   Runtime:                         10932 cycles
   Runtime:                         10.932000 us
   Stalls:                          1 cycles
   Executed Nodes:                  10930 cycles

********************************************************************************
   ========= Performance Analysis =================
   Setup Time:                      4076251562.000000ns
   Simulation Time:                 415064112693.000000ns
   System Clock:                    1.000000GHz
   Transistor Latency:              0ns
   Runtime:                         10932 cycles
   Runtime:                         0.000001 seconds
   Stalls:                          1 cycles
       Load Only:                   0 cycles
       Store Only:                  1 cycles
       Compute Only:                0 cycles
       Compute & Store:             0 cycles
       Load & Store:                0 cycles
       Load & Compute:              0 cycles
       Load & Compute & Store:      0 cycles
   Executed Nodes:                  10930 cycles
       Load Only:                   0 cycles
       Store Only:                  4 cycles
       Compute Only:                1 cycles
       Compute & Store:             21 cycles
       Load & Store:                0 cycles
       Load & Compute:              6 cycles
       Load & Compute & Store:      10898 cycles

   ========= Runtime FU's ========= (Max | Avg) ===
   Counter FU's:                      32 | 0.046838
   Integer Add/Sub FU's:               0 | 0.000000
   Integer Mul/Div FU's:               0 | 0.000000
   Integer Shifter FU's:               0 | 0.000000
   Integer Bitwise FU's:               1 | 0.000091
   Floating Point Float Add/Sub:       0 | 0.000000
   Floating Point Double Add/Sub:      0 | 0.000000
   Floating Point Float Mul/Div:      34 | 0.044252
   Floating Point Double Mul/Div:      0 | 0.000000
   0 Cycle Compare FU's:             102 | 0.046945
   GEP Instruction FU's:              96 | 0.046835
   Type Conversion FU's:               7 | 0.006782

   ========= Static FU's ==========================
   Counter FU's:                    0
   Integer Add/Sub FU's:            0
   Integer Mul/Div FU's:            0
   Integer Shifter FU's:            0
   Integer Bitwise FU's:            0
   Floating Point Float Add/Sub:    0
   Floating Point Double Add/Sub:   0
   Floating Point Float Mul/Div:    0
[...]
       Load & Compute:              0 cycles
       Load & Compute & Store:      0 cycles
   Executed Nodes:                  10942 cycles
       Load Only:                   0 cycles
       Store Only:                  16 cycles
       Compute Only:                1 cycles
       Compute & Store:             21 cycles
       Load & Store:                0 cycles
       Load & Compute:              18 cycles
       Load & Compute & Store:      10886 cycles

   ========= Runtime FU's ========= (Max | Avg) ===
   Counter FU's:                      32 | 0.046786
   Integer Add/Sub FU's:               0 | 0.000000
   Integer Mul/Div FU's:               0 | 0.000000
   Integer Shifter FU's:               0 | 0.000000
   Integer Bitwise FU's:               1 | 0.000091
   Floating Point Float Add/Sub:       0 | 0.000000
   Floating Point Double Add/Sub:      0 | 0.000000
   Floating Point Float Mul/Div:       0 | 0.000000
   Floating Point Double Mul/Div:      0 | 0.000000
   0 Cycle Compare FU's:             102 | 0.047066
   GEP Instruction FU's:              96 | 0.046784
   Type Conversion FU's:               7 | 0.006775

   ========= Static FU's ==========================
   Counter FU's:                    0
   Integer Add/Sub FU's:            0
   Integer Mul/Div FU's:            0
   Integer Shifter FU's:            0
   Integer Bitwise FU's:            0
   Floating Point Float Add/Sub:    0
   Floating Point Double Add/Sub:   0
   Floating Point Float Mul/Div:    0
   Floating Point Double Mul/Div:   0
   0 Cycle Compare FU's:            0
   GEP Instruction FU's:            0
   Type Conversion FU's:            0
   Other:                           0

   ========= Pipeline Register Usage =============
   Total Number of Registers:       5641
   Max Register Usage Per Cycle:    137
   Avg Register Usage Per Cycle:    12.117690
   Avg Register Size (Bytes):       5.980606

   ========= Memory Configuration =================
   Cache Bus Ports:                 0
   Shared Cache Size:               0kB
   Local Bus Ports:                 0
   Private SPM Size:                256kB
   Private Read Ports:              0
   Private Write Ports:             0
   Private Read Bus Width:          64
   Private Write Bus Width:         64
       Memory Reads:                0
       Memory Writes:               0
   ========= Power Analysis ======================
   FU Leakage Power:                0.000611 mW 
   FU Dynamic Power:                0.036818 mW 
   FU Total Power:                  0.037429 mW 

   Registers Leakage Power:          0.005281 mW 
   Registers Dynamic Power:          0.015342 mW 
       Register Reads (Bits):        132616
       Register Writes (Bits):       133658
   Registers Total Power:            0.020624 mW

   SPM Leakage Power:               0.104100 mW
   SPM Read Dynamic Power:          9.552853 mW
   SPM Write Dynamic Power:         7.961824 mW
   SPM Total Power:                 17.618777 mW

   Cache Leakage Power:             0.000000 mW
   Cache Read Dynamic Power:        0.000000 mW
   Cache Write Dynamic Power:       0.000000 mW
   Cache Total Power:               0.000000 mW

   Accelerator Power:               0.058053 mW
   Accelerator Power (SPM):         17.676830 mW
   Accelerator Power (Cache):       0.058053 mW

   ========= Area Analysis =======================
   FU Area:                         50.369961 um^2 (0.000050 mm^2)
   Register Area:                   429.271088 um^2 (0.000429 mm^2)
   SPM Area:                        2177.365505 um^2 (0.002177 mm^2)
   Cache Area:                      0.000000 um^2 (0.000000 mm^2)

   Accelerator Area:                479.641052 um^2 (0.000480 mm^2)
   Accelerator Area (SPM):          2657.006557 um^2 (0.002657 mm^2)
   Accelerator Area (Cache):        479.641052 um^2 (0.000480 mm^2)

   ========= SPM Resizing  =======================
   SPM Optimized Leakage Power:     0.004248 mW
   SPM Opt Area:                    178.524902 um^2

********************************************************************************
system.acctest.elem_matrix0.compute
   ========= Performance Analysis =============
   Setup Time:                      3.316243seconds
   Simulation Time:                 209.813957seconds
   System Clock:                    1.000000GHz
   Transistor Latency:              1ns
   Runtime:                         10932 cycles
   Runtime:                         10.932000 us
   Stalls:                          1 cycles
   Executed Nodes:                  10930 cycles

********************************************************************************
   ========= Performance Analysis =================
   Setup Time:                      3316242755.000000ns
   Simulation Time:                 209813957350.000000ns
   System Clock:                    1.000000GHz
   Transistor Latency:              0ns
   Runtime:                         10932 cycles
   Runtime:                         0.000001 seconds
   Stalls:                          1 cycles
       Load Only:                   0 cycles
       Store Only:                  1 cycles
       Compute Only:                0 cycles
       Compute & Store:             0 cycles
       Load & Store:                0 cycles
       Load & Compute:              0 cycles
       Load & Compute & Store:      0 cycles
   Executed Nodes:                  10930 cycles
       Load Only:                   0 cycles
       Store Only:                  4 cycles
       Compute Only:                1 cycles
       Compute & Store:             21 cycles
       Load & Store:                0 cycles
       Load & Compute:              6 cycles
       Load & Compute & Store:      10898 cycles

   ========= Runtime FU's ========= (Max | Avg) ===
   Counter FU's:                      32 | 0.046838
   Integer Add/Sub FU's:               0 | 0.000000
   Integer Mul/Div FU's:               0 | 0.000000
   Integer Shifter FU's:               0 | 0.000000
   Integer Bitwise FU's:               1 | 0.000091
   Floating Point Float Add/Sub:       0 | 0.000000
   Floating Point Double Add/Sub:      0 | 0.000000
   Floating Point Float Mul/Div:      34 | 0.044252
   Floating Point Double Mul/Div:      0 | 0.000000
   0 Cycle Compare FU's:             102 | 0.046945
   GEP Instruction FU's:              96 | 0.046835
   Type Conversion FU's:               7 | 0.006782

   ========= Static FU's ==========================
   Counter FU's:                    0
   Integer Add/Sub FU's:            0
   Integer Mul/Div FU's:            0
   Integer Shifter FU's:            0
   Integer Bitwise FU's:            0
   Floating Point Float Add/Sub:    0
   Floating Point Double Add/Sub:   0
   Floating Point Float Mul/Div:    0
   Floating Point Double Mul/Div:   0
   0 Cycle Compare FU's:            0
   GEP Instruction FU's:            0
   Type Conversion FU's:            0
   Other:                           0

   ========= Pipeline Register Usage =============
   Total Number of Registers:       5641
   Max Register Usage Per Cycle:    137
   Avg Register Usage Per Cycle:    12.130992
   Avg Register Size (Bytes):       5.980606

   ========= Memory Configuration =================
   Cache Bus Ports:                 0
   Shared Cache Size:               0kB
   Local Bus Ports:                 0
   Private SPM Size:                256kB
   Private Read Ports:              0
   Private Write Ports:             0
   Private Read Bus Width:          64
   Private Write Bus Width:         64
       Memory Reads:                0
       Memory Writes:               0
   ========= Power Analysis ======================
   FU Leakage Power:                0.045377 mW 
   FU Dynamic Power:                0.142576 mW 
   FU Total Power:                  0.187953 mW 

   Registers Leakage Power:          0.005281 mW 
   Registers Dynamic Power:          0.015326 mW 
       Register Reads (Bits):        132616
       Register Writes (Bits):       133658
   Registers Total Power:            0.020607 mW

   SPM Leakage Power:               0.104100 mW
   SPM Read Dynamic Power:          9.695513 mW
   SPM Write Dynamic Power:         7.306241 mW
   SPM Total Power:                 17.105855 mW

   Cache Leakage Power:             0.000000 mW
   Cache Read Dynamic Power:        0.000000 mW
   Cache Write Dynamic Power:       0.000000 mW
   Cache Total Power:               0.000000 mW

   Accelerator Power:               0.208559 mW
   Accelerator Power (SPM):         17.314414 mW
   Accelerator Power (Cache):       0.208559 mW

   ========= Area Analysis =======================
   FU Area:                         5472.068359 um^2 (0.005472 mm^2)
   Register Area:                   429.271088 um^2 (0.000429 mm^2)
   SPM Area:                        2177.365505 um^2 (0.002177 mm^2)
   Cache Area:                      0.000000 um^2 (0.000000 mm^2)

   Accelerator Area:                5901.339355 um^2 (0.005901 mm^2)
   Accelerator Area (SPM):          8078.704860 um^2 (0.008079 mm^2)
   Accelerator Area (Cache):        5901.339355 um^2 (0.005901 mm^2)

   ========= SPM Resizing  =======================
   SPM Optimized Leakage Power:     0.004248 mW
   SPM Opt Area:                    178.524902 um^2

16273764500: system.acctest.elem_matrix1_dma: SRC:0x0000000082486400, DST:0x0000000024100020, LEN:65536
16274010000: global: Timer #0 stopped at tick 16274010000. Duration: 15550625
16274023750: global: Number of accelerators running = 6
16274184375: global: Timer #0 started at tick 16274184375
16274229375: global: Timer #1 started at tick 16274229375
16274371875: global: Timer #1 stopped at tick 16274371875. Duration: 142500
16275956875: global: Timer #0 stopped at tick 16275956875. Duration: 1772500
16275970625: global: Number of accelerators running = 6
16276086250: global: Timer #0 started at tick 16276086250
16276428125: global: Timer #3 started at tick 16276428125
16276614375: global: Timer #3 stopped at tick 16276614375. Duration: 186250
16276672500: global: Timer #2 started at tick 16276672500
16277125625: global: Timer #2 stopped at tick 16277125625. Duration: 453125
16285683500: system.acctest.elem_matrix1_dma: Transfer completed in 11.919 us
********************************************************************************
system.acctest.elem_matrix3.compute
   ========= Performance Analysis =============
   Setup Time:                      7.537709seconds
   Simulation Time:                 136.427644seconds
   System Clock:                    1.000000GHz
   Transistor Latency:              1ns
   Runtime:                         10932 cycles
   Runtime:                         10.932000 us
   Stalls:                          0 cycles
   Executed Nodes:                  10931 cycles

********************************************************************************
   ========= Performance Analysis =================
   Setup Time:                      7537709041.000000ns
   Simulation Time:                 136427643831.000015ns
   System Clock:                    1.000000GHz
   Transistor Latency:              0ns
   Runtime:                         10932 cycles
   Runtime:                         0.000001 seconds
   Stalls:                          0 cycles
       Load Only:                   0 cycles
       Store Only:                  0 cycles
       Compute Only:                0 cycles
       Compute & Store:             0 cycles
       Load & Store:                0 cycles
       Load & Compute:              0 cycles
       Load & Compute & Store:      0 cycles
   Executed Nodes:                  10931 cycles
       Load Only:                   0 cycles
       Store Only:                  5 cycles
       Compute Only:                1 cycles
       Compute & Store:             21 cycles
       Load & Store:                0 cycles
       Load & Compute:              7 cycles
       Load & Compute & Store:      10897 cycles

   ========= Runtime FU's ========= (Max | Avg) ===
   Counter FU's:                      32 | 0.046838
   Integer Add/Sub FU's:               0 | 0.000000
   Integer Mul/Div FU's:               0 | 0.000000
   Integer Shifter FU's:               0 | 0.000000
   Integer Bitwise FU's:               1 | 0.000091
   Floating Point Float Add/Sub:      34 | 0.044252
   Floating Point Double Add/Sub:      0 | 0.000000
   Floating Point Float Mul/Div:       0 | 0.000000
   Floating Point Double Mul/Div:      0 | 0.000000
   0 Cycle Compare FU's:             102 | 0.046974
   GEP Instruction FU's:              96 | 0.046835
   Type Conversion FU's:               7 | 0.006782

   ========= Static FU's ==========================
   Counter FU's:                    0
   Integer Add/Sub FU's:            0
   Integer Mul/Div FU's:            0
   Integer Shifter FU's:            0
   Integer Bitwise FU's:            0
   Floating Point Float Add/Sub:    0
   Floating Point Double Add/Sub:   0
   Floating Point Float Mul/Div:    0
   Floating Point Double Mul/Div:   0
   0 Cycle Compare FU's:            0
   GEP Instruction FU's:            0
   Type Conversion FU's:            0
   Other:                           0

   ========= Pipeline Register Usage =============
   Total Number of Registers:       5641
   Max Register Usage Per Cycle:    138
   Avg Register Usage Per Cycle:    12.130992
   Avg Register Size (Bytes):       5.980606

   ========= Memory Configuration =================
   Cache Bus Ports:                 0
   Shared Cache Size:               0kB
   Local Bus Ports:                 0
   Private SPM Size:                256kB
   Private Read Ports:              0
   Private Write Ports:             0
   Private Read Bus Width:          64
   Private Write Bus Width:         64
       Memory Reads:                0
       Memory Writes:               0
   ========= Power Analysis ======================
   FU Leakage Power:                0.519269 mW 
   FU Dynamic Power:                0.154621 mW 
   FU Total Power:                  0.673890 mW 

   Registers Leakage Power:          0.005281 mW 
   Registers Dynamic Power:          0.015326 mW 
       Register Reads (Bits):        132616
       Register Writes (Bits):       133658
   Registers Total Power:            0.020607 mW

   SPM Leakage Power:               0.104100 mW
   SPM Read Dynamic Power:          9.800150 mW
   SPM Write Dynamic Power:         7.306241 mW
   SPM Total Power:                 17.210492 mW

   Cache Leakage Power:             0.000000 mW
   Cache Read Dynamic Power:        0.000000 mW
   Cache Write Dynamic Power:       0.000000 mW
   Cache Total Power:               0.000000 mW

   Accelerator Power:               0.694497 mW
   Accelerator Power (SPM):         17.904989 mW
   Accelerator Power (Cache):       0.694497 mW

   ========= Area Analysis =======================
   FU Area:                         70212.562500 um^2 (0.070213 mm^2)
   Register Area:                   429.271088 um^2 (0.000429 mm^2)
   SPM Area:                        2177.365505 um^2 (0.002177 mm^2)
   Cache Area:                      0.000000 um^2 (0.000000 mm^2)

   Accelerator Area:                70641.835938 um^2 (0.070642 mm^2)
   Accelerator Area (SPM):          72819.201442 um^2 (0.072819 mm^2)
   Accelerator Area (Cache):        70641.835938 um^2 (0.070642 mm^2)

   ========= SPM Resizing  =======================
   SPM Optimized Leakage Power:     0.004248 mW
   SPM Opt Area:                    178.524902 um^2

16290490875: system.acctest.elem_matrix2_dma: SRC:0x0000000024230020, DST:0x000000008235fec0, LEN:65536
16290849375: global: Timer #0 stopped at tick 16290849375. Duration: 14763125
16290858750: global: Number of accelerators running = 6
16290981250: global: Timer #0 started at tick 16290981250
16291406250: global: Timer #3 started at tick 16291406250
16291768125: global: Timer #3 stopped at tick 16291768125. Duration: 361875
16291813125: global: Timer #2 started at tick 16291813125
16291892500: global: Timer #4 started at tick 16291892500
16291925000: global: Timer #4 stopped at tick 16291925000. Duration: 32500
16291980625: global: Timer #4 started at tick 16291980625
16292013125: global: Timer #4 stopped at tick 16292013125. Duration: 32500
16292050625: global: Timer #4 started at tick 16292050625
16292083125: global: Timer #4 stopped at tick 16292083125. Duration: 32500
16292128750: global: Timer #4 started at tick 16292128750
16292161250: global: Timer #4 stopped at tick 16292161250. Duration: 32500
16292207500: global: Timer #4 started at tick 16292207500
16292236250: global: Timer #4 stopped at tick 16292236250. Duration: 28750
16292613125: global: Timer #2 stopped at tick 16292613125. Duration: 800000
16292851250: global: DAG ID = 10
16292865000: global: Node ID = 19
16292878125: global: Node deadline difference = -1867
16292890625: global: Predicted memory time / byte = 0.000512939 us/byte
16292903125: global: Predicted memory time = 100.848 us
16292915625: global: Predicted memory time / byte = 0.0005065 us/byte
16292928125: global: Predicted memory time = 99.582 us
16292940625: global: Predicted memory time / byte = 0.000393997 us/byte
16292953125: global: Predicted memory time = 51 us
16292965625: global: Predicted memory time / byte = 0 us/byte
16292978125: global: Predicted memory time = 0 us
16297192875: system.acctest.elem_matrix2_dma: Transfer completed in 6.702 us
16306738750: system.acctest.elem_matrix0_dma: SRC:0x0000000082486400, DST:0x0000000024000020, LEN:65536
16306965625: global: Timer #0 stopped at tick 16306965625. Duration: 15984375
16306975000: global: Number of accelerators running = 6
16307155625: global: Timer #0 started at tick 16307155625
16307200625: global: Timer #1 started at tick 16307200625
16307343125: global: Timer #1 stopped at tick 16307343125. Duration: 142500
16308921875: global: Timer #0 stopped at tick 16308921875. Duration: 1766250
16308935625: global: Number of accelerators running = 6
16309051250: global: Timer #0 started at tick 16309051250
16309458750: global: Timer #3 started at tick 16309458750
16309641250: global: Timer #3 stopped at tick 16309641250. Duration: 182500
16309693750: global: Timer #2 started at tick 16309693750
16309766875: global: Timer #4 started at tick 16309766875
16309795625: global: Timer #4 stopped at tick 16309795625. Duration: 28750
16309851250: global: Timer #4 started at tick 16309851250
16309883750: global: Timer #4 stopped at tick 16309883750. Duration: 32500
16309921250: global: Timer #4 started at tick 16309921250
16309953750: global: Timer #4 stopped at tick 16309953750. Duration: 32500
16309999375: global: Timer #4 started at tick 16309999375
16310031875: global: Timer #4 stopped at tick 16310031875. Duration: 32500
16310078125: global: Timer #4 started at tick 16310078125
16310106875: global: Timer #4 stopped at tick 16310106875. Duration: 28750
16310236250: global: Timer #2 stopped at tick 16310236250. Duration: 542500
16310453125: global: DAG ID = 11
16310466875: global: Node ID = 20
16310480000: global: Node deadline difference = -1906
16310492500: global: Predicted memory time / byte = 0.000487167 us/byte
16310505000: global: Predicted memory time = 95.781 us
16310517500: global: Predicted memory time / byte = 0.000487167 us/byte
16310530000: global: Predicted memory time = 63.854 us
16310542500: global: Predicted memory time / byte = 0.000304459 us/byte
16310555000: global: Predicted memory time = 19 us
16310567500: global: Predicted memory time / byte = 0 us/byte
16310580000: global: Predicted memory time = 0 us
16312106875: global: Timer #0 stopped at tick 16312106875. Duration: 3055625
16312116250: global: Number of accelerators running = 6
16312276250: global: Timer #0 started at tick 16312276250
16312325625: global: Timer #1 started at tick 16312325625
16312470000: global: Timer #1 stopped at tick 16312470000. Duration: 144375
Exiting @ tick 16312608000 because user interrupt received
