gem5 Simulator System.  http://gem5.org
gem5 is copyrighted software; use the --copyright option for details.

gem5 compiled Oct 26 2021 22:10:15
gem5 started Oct 27 2021 18:46:34
gem5 executing on cycle2.cs.rochester.edu, pid 151112
command line: /localdisk/sgupta45/gem5-SALAM/build/ARM/gem5.opt --debug-flags=HWACC,CommInterface,LLVMInterface,StreamDma,NoncoherentDma --outdir=BM_ARM_OUT/canny_4_deblur_4_gru_0_harris_0_lstm_4_APRX3_pipeline configs/SALAM/scheduler.py --mem-size=4GB --mem-type=LPDDR3_1600_1x32 --kernel=/localdisk/sgupta45/gem5-SALAM/benchmarks/scheduler/sw/bin/canny_4_deblur_4_gru_0_harris_0_lstm_4_APRX3.elf --disk-image=/localdisk/sgupta45/gem5-SALAM/baremetal/common/fake.iso --machine-type=VExpress_GEM5_V1 --dtb-file=none --bare-metal --cpu-type=DerivO3CPU --accpath=/localdisk/sgupta45/gem5-SALAM/benchmarks --caches --l2cache

Global frequency set at 1000000000000 ticks per second
Cycle Counts Loaded!
Cycle Counts Loaded!
Cycle Counts Loaded!
Cycle Counts Loaded!
Cycle Counts Loaded!
Cycle Counts Loaded!
Cycle Counts Loaded!
Cycle Counts Loaded!
Cycle Counts Loaded!
Cycle Counts Loaded!
Cycle Counts Loaded!
**** REAL SIMULATION ****
661700258500: system.acctest.elem_matrix0_dma: SRC:0x0000000087b04a28, DST:0x0000000024000020, LEN:65536
661723458500: system.acctest.elem_matrix0_dma: Transfer completed in 23.2 us
661730034500: system.acctest.elem_matrix0_dma: SRC:0x00000000854f47e8, DST:0x0000000024010020, LEN:65536
661753224500: system.acctest.elem_matrix0_dma: Transfer completed in 23.19 us
661773822500: system.acctest.elem_matrix1_dma: SRC:0x0000000087b2fe28, DST:0x0000000024100020, LEN:65536
********************************************************************************
system.acctest.elem_matrix0.compute
   ========= Performance Analysis =============
   Setup Time:                      1.95788seconds
   Simulation Time:                 32.5993seconds
   System Clock:                    1GHz
   Transistor Latency:              1ns
   Runtime:                         16394 cycles
   Runtime:                         16.394 us
   Stalls:                          1 cycles
   Executed Nodes:                  16392 cycles

********************************************************************************
   ========= Performance Analysis =================
   Setup Time:                      1.95788e+09ns
   Simulation Time:                 3.25993e+10ns
   System Clock:                    1GHz
   Transistor Latency:              0ns
   Runtime:                         16394 cycles
   Runtime:                         1.6394e-06 seconds
   Stalls:                          1 cycles
       Load Only:                   0 cycles
       Store Only:                  1 cycles
       Compute Only:                0 cycles
       Compute & Store:             0 cycles
       Load & Store:                0 cycles
       Load & Compute:              0 cycles
       Load & Compute & Store:      0 cycles
   Executed Nodes:                  16392 cycles
       Load Only:                   0 cycles
       Store Only:                  5 cycles
       Compute Only:                1 cycles
       Compute & Store:             32 cycles
       Load & Store:                0 cycles
       Load & Compute:              7 cycles
       Load & Compute & Store:      16347 cycles

   ========= Runtime FU's ========= (Max | Avg) ===
   Counter FU's:                      32 | 0.031233
   Integer Add/Sub FU's:               0 | 0.000000
   Integer Mul/Div FU's:               0 | 0.000000
   Integer Shifter FU's:               0 | 0.000000
   Integer Bitwise FU's:               1 | 0.000061
   Floating Point Float Add/Sub:       1 | 0.999390
   Floating Point Double Add/Sub:      0 | 0.000000
   Floating Point Float Mul/Div:       0 | 0.000000
   Floating Point Double Mul/Div:      0 | 0.000000
   0 Cycle Compare FU's:             101 | 0.031672
   GEP Instruction FU's:              96 | 0.031231
   Type Conversion FU's:               7 | 0.004523

   ========= Static FU's ==========================
   Counter FU's:                    0
   Integer Add/Sub FU's:            0
   Integer Mul/Div FU's:            0
   Integer Shifter FU's:            0
   Integer Bitwise FU's:            0
   Floating Point Float Add/Sub:    0
   Floating Point Double Add/Sub:   0
   Floating Point Float Mul/Div:    0
   Floating Point Double Mul/Div:   0
   0 Cycle Compare FU's:            0
   GEP Instruction FU's:            0
   Type Conversion FU's:            0
   Other:                           0

   ========= Pipeline Register Usage =============
   Total Number of Registers:       5641
   Max Register Usage Per Cycle:    135
   Avg Register Usage Per Cycle:    8.089301
   Avg Register Size (Bytes):       5.980606

   ========= Memory Configuration =================
   Cache Bus Ports:                 0
   Shared Cache Size:               0kB
   Local Bus Ports:                 0
   Private SPM Size:                256kB
   Private Read Ports:              0
   Private Write Ports:             0
   Private Read Bus Width:          64
   Private Write Bus Width:         64
       Memory Reads:                0
       Memory Writes:               0
   ========= Power Analysis ======================
   FU Leakage Power:                0.015866 mW 
   FU Dynamic Power:                0.231200 mW 
   FU Total Power:                  0.247066 mW 

   Registers Leakage Power:          0.003521 mW 
   Registers Dynamic Power:          0.015322 mW 
       Register Reads (Bits):        132616
       Register Writes (Bits):       133658
   Registers Total Power:            0.018843 mW

   SPM Leakage Power:               0.099590 mW
   SPM Read Dynamic Power:          0.965320 mW
   SPM Write Dynamic Power:         0.561696 mW
   SPM Total Power:                 1.626606 mW

   Cache Leakage Power:             0.000000 mW
   Cache Read Dynamic Power:        0.000000 mW
   Cache Write Dynamic Power:       0.000000 mW
   Cache Total Power:               0.000000 mW

   Accelerator Power:               0.265909 mW
   Accelerator Power (SPM):         1.892515 mW
   Accelerator Power (Cache):       0.265909 mW

   ========= Area Analysis =======================
   FU Area:                         2113.963867 um^2 (0.002114 mm^2)
   Register Area:                   286.180725 um^2 (0.000286 mm^2)
   SPM Area:                        1894.672457 um^2 (0.001895 mm^2)
   Cache Area:                      0.000000 um^2 (0.000000 mm^2)

   Accelerator Area:                2400.144531 um^2 (0.002400 mm^2)
   Accelerator Area (SPM):          4294.816988 um^2 (0.004295 mm^2)
   Accelerator Area (Cache):        2400.144531 um^2 (0.002400 mm^2)

   ========= SPM Resizing  =======================
   SPM Optimized Leakage Power:     0.003640 mW
   SPM Opt Area:                    97.220725 um^2

661796952500: system.acctest.elem_matrix1_dma: Transfer completed in 23.13 us
661803624500: system.acctest.elem_matrix1_dma: SRC:0x0000000085e74828, DST:0x0000000024110020, LEN:65536
661826624500: system.acctest.elem_matrix1_dma: Transfer completed in 23 us
661846573500: system.acctest.elem_matrix2_dma: SRC:0x0000000087b5b228, DST:0x0000000024200020, LEN:65536
********************************************************************************
system.acctest.elem_matrix1.compute
   ========= Performance Analysis =============
   Setup Time:                      3.587318seconds
   Simulation Time:                 39.222340seconds
   System Clock:                    1.000000GHz
   Transistor Latency:              1ns
   Runtime:                         16394 cycles
   Runtime:                         16.394000 us
   Stalls:                          1 cycles
   Executed Nodes:                  16392 cycles

********************************************************************************
   ========= Performance Analysis =================
   Setup Time:                      3587318225.000000ns
   Simulation Time:                 39222340252.000000ns
   System Clock:                    1.000000GHz
   Transistor Latency:              0ns
   Runtime:                         16394 cycles
   Runtime:                         0.000002 seconds
   Stalls:                          1 cycles
       Load Only:                   0 cycles
       Store Only:                  1 cycles
       Compute Only:                0 cycles
       Compute & Store:             0 cycles
       Load & Store:                0 cycles
       Load & Compute:              0 cycles
       Load & Compute & Store:      0 cycles
   Executed Nodes:                  16392 cycles
       Load Only:                   0 cycles
       Store Only:                  5 cycles
       Compute Only:                1 cycles
       Compute & Store:             32 cycles
       Load & Store:                0 cycles
       Load & Compute:              7 cycles
       Load & Compute & Store:      16347 cycles

   ========= Runtime FU's ========= (Max | Avg) ===
   Counter FU's:                      32 | 0.031233
   Integer Add/Sub FU's:               0 | 0.000000
   Integer Mul/Div FU's:               0 | 0.000000
   Integer Shifter FU's:               0 | 0.000000
   Integer Bitwise FU's:               1 | 0.000061
   Floating Point Float Add/Sub:       1 | 0.999390
   Floating Point Double Add/Sub:      0 | 0.000000
   Floating Point Float Mul/Div:       0 | 0.000000
   Floating Point Double Mul/Div:      0 | 0.000000
   0 Cycle Compare FU's:             101 | 0.031672
   GEP Instruction FU's:              96 | 0.031231
   Type Conversion FU's:               7 | 0.004523

   ========= Static FU's ==========================
   Counter FU's:                    0
   Integer Add/Sub FU's:            0
   Integer Mul/Div FU's:            0
   Integer Shifter FU's:            0
   Integer Bitwise FU's:            0
   Floating Point Float Add/Sub:    0
   Floating Point Double Add/Sub:   0
   Floating Point Float Mul/Div:    0
   Floating Point Double Mul/Div:   0
   0 Cycle Compare FU's:            0
   GEP Instruction FU's:            0
   Type Conversion FU's:            0
   Other:                           0

   ========= Pipeline Register Usage =============
   Total Number of Registers:       5641
   Max Register Usage Per Cycle:    135
   Avg Register Usage Per Cycle:    8.089301
   Avg Register Size (Bytes):       5.980606

   ========= Memory Configuration =================
   Cache Bus Ports:                 0
   Shared Cache Size:               0kB
   Local Bus Ports:                 0
   Private SPM Size:                256kB
   Private Read Ports:              0
   Private Write Ports:             0
   Private Read Bus Width:          64
   Private Write Bus Width:         64
       Memory Reads:                0
       Memory Writes:               0
   ========= Power Analysis ======================
   FU Leakage Power:                0.015866 mW 
   FU Dynamic Power:                0.231200 mW 
   FU Total Power:                  0.247066 mW 

   Registers Leakage Power:          0.003521 mW 
   Registers Dynamic Power:          0.015322 mW 
       Register Reads (Bits):        132616
       Register Writes (Bits):       133658
   Registers Total Power:            0.018843 mW

   SPM Leakage Power:               0.099590 mW
   SPM Read Dynamic Power:          0.965320 mW
   SPM Write Dynamic Power:         0.561696 mW
   SPM Total Power:                 1.626606 mW

   Cache Leakage Power:             0.000000 mW
   Cache Read Dynamic Power:        0.000000 mW
   Cache Write Dynamic Power:       0.000000 mW
   Cache Total Power:               0.000000 mW

   Accelerator Power:               0.265909 mW
   Accelerator Power (SPM):         1.892515 mW
   Accelerator Power (Cache):       0.265909 mW

   ========= Area Analysis =======================
   FU Area:                         2113.963867 um^2 (0.002114 mm^2)
   Register Area:                   286.180725 um^2 (0.000286 mm^2)
   SPM Area:                        1894.672457 um^2 (0.001895 mm^2)
   Cache Area:                      0.000000 um^2 (0.000000 mm^2)

   Accelerator Area:                2400.144531 um^2 (0.002400 mm^2)
   Accelerator Area (SPM):          4294.816988 um^2 (0.004295 mm^2)
   Accelerator Area (Cache):        2400.144531 um^2 (0.002400 mm^2)

   ========= SPM Resizing  =======================
   SPM Optimized Leakage Power:     0.003640 mW
   SPM Opt Area:                    97.220725 um^2

661869873500: system.acctest.elem_matrix2_dma: Transfer completed in 23.3 us
661876336500: system.acctest.elem_matrix2_dma: SRC:0x00000000867f4868, DST:0x0000000024210020, LEN:65536
661899476500: system.acctest.elem_matrix2_dma: Transfer completed in 23.14 us
661919232500: system.acctest.elem_matrix3_dma: SRC:0x0000000087b86628, DST:0x0000000024300020, LEN:65536
********************************************************************************
system.acctest.elem_matrix2.compute
   ========= Performance Analysis =============
   Setup Time:                      3.639356seconds
   Simulation Time:                 37.641631seconds
   System Clock:                    1.000000GHz
   Transistor Latency:              1ns
   Runtime:                         16394 cycles
   Runtime:                         16.394000 us
   Stalls:                          1 cycles
   Executed Nodes:                  16392 cycles

********************************************************************************
   ========= Performance Analysis =================
   Setup Time:                      3639356316.000000ns
   Simulation Time:                 37641630539.000000ns
   System Clock:                    1.000000GHz
   Transistor Latency:              0ns
   Runtime:                         16394 cycles
   Runtime:                         0.000002 seconds
   Stalls:                          1 cycles
       Load Only:                   0 cycles
       Store Only:                  1 cycles
       Compute Only:                0 cycles
       Compute & Store:             0 cycles
       Load & Store:                0 cycles
       Load & Compute:              0 cycles
       Load & Compute & Store:      0 cycles
   Executed Nodes:                  16392 cycles
       Load Only:                   0 cycles
       Store Only:                  5 cycles
       Compute Only:                1 cycles
       Compute & Store:             32 cycles
       Load & Store:                0 cycles
       Load & Compute:              7 cycles
       Load & Compute & Store:      16347 cycles

   ========= Runtime FU's ========= (Max | Avg) ===
   Counter FU's:                      32 | 0.031233
   Integer Add/Sub FU's:               0 | 0.000000
   Integer Mul/Div FU's:               0 | 0.000000
   Integer Shifter FU's:               0 | 0.000000
   Integer Bitwise FU's:               1 | 0.000061
   Floating Point Float Add/Sub:       1 | 0.999390
   Floating Point Double Add/Sub:      0 | 0.000000
   Floating Point Float Mul/Div:       0 | 0.000000
   Floating Point Double Mul/Div:      0 | 0.000000
   0 Cycle Compare FU's:             101 | 0.031672
   GEP Instruction FU's:              96 | 0.031231
   Type Conversion FU's:               7 | 0.004523

   ========= Static FU's ==========================
   Counter FU's:                    0
   Integer Add/Sub FU's:            0
   Integer Mul/Div FU's:            0
   Integer Shifter FU's:            0
   Integer Bitwise FU's:            0
   Floating Point Float Add/Sub:    0
   Floating Point Double Add/Sub:   0
   Floating Point Float Mul/Div:    0
   Floating Point Double Mul/Div:   0
   0 Cycle Compare FU's:            0
   GEP Instruction FU's:            0
   Type Conversion FU's:            0
   Other:                           0

   ========= Pipeline Register Usage =============
   Total Number of Registers:       5641
   Max Register Usage Per Cycle:    135
   Avg Register Usage Per Cycle:    8.089301
   Avg Register Size (Bytes):       5.980606

   ========= Memory Configuration =================
   Cache Bus Ports:                 0
   Shared Cache Size:               0kB
   Local Bus Ports:                 0
   Private SPM Size:                256kB
   Private Read Ports:              0
   Private Write Ports:             0
   Private Read Bus Width:          64
   Private Write Bus Width:         64
       Memory Reads:                0
       Memory Writes:               0
   ========= Power Analysis ======================
   FU Leakage Power:                0.015866 mW 
   FU Dynamic Power:                0.231200 mW 
   FU Total Power:                  0.247066 mW 

   Registers Leakage Power:          0.003521 mW 
   Registers Dynamic Power:          0.015322 mW 
       Register Reads (Bits):        132616
       Register Writes (Bits):       133658
   Registers Total Power:            0.018843 mW

   SPM Leakage Power:               0.099590 mW
   SPM Read Dynamic Power:          0.965320 mW
   SPM Write Dynamic Power:         0.561696 mW
   SPM Total Power:                 1.626606 mW

   Cache Leakage Power:             0.000000 mW
   Cache Read Dynamic Power:        0.000000 mW
   Cache Write Dynamic Power:       0.000000 mW
   Cache Total Power:               0.000000 mW

   Accelerator Power:               0.265909 mW
   Accelerator Power (SPM):         1.892515 mW
   Accelerator Power (Cache):       0.265909 mW

   ========= Area Analysis =======================
   FU Area:                         2113.963867 um^2 (0.002114 mm^2)
   Register Area:                   286.180725 um^2 (0.000286 mm^2)
   SPM Area:                        1894.672457 um^2 (0.001895 mm^2)
   Cache Area:                      0.000000 um^2 (0.000000 mm^2)

   Accelerator Area:                2400.144531 um^2 (0.002400 mm^2)
   Accelerator Area (SPM):          4294.816988 um^2 (0.004295 mm^2)
   Accelerator Area (Cache):        2400.144531 um^2 (0.002400 mm^2)

   ========= SPM Resizing  =======================
   SPM Optimized Leakage Power:     0.003640 mW
   SPM Opt Area:                    97.220725 um^2

661942462500: system.acctest.elem_matrix3_dma: Transfer completed in 23.23 us
661949013500: system.acctest.elem_matrix3_dma: SRC:0x00000000871748a8, DST:0x0000000024310020, LEN:65536
661972183500: system.acctest.elem_matrix3_dma: Transfer completed in 23.17 us
661993736500: system.acctest.isp0_dma: SRC:0x000000008532d200, DST:0x0000000027000020, LEN:16900
********************************************************************************
system.acctest.elem_matrix3.compute
   ========= Performance Analysis =============
   Setup Time:                      3.793806seconds
   Simulation Time:                 37.711816seconds
   System Clock:                    1.000000GHz
   Transistor Latency:              1ns
   Runtime:                         16394 cycles
   Runtime:                         16.394000 us
   Stalls:                          1 cycles
   Executed Nodes:                  16392 cycles

********************************************************************************
   ========= Performance Analysis =================
   Setup Time:                      3793805501.000000ns
   Simulation Time:                 37711815920.000000ns
   System Clock:                    1.000000GHz
   Transistor Latency:              0ns
   Runtime:                         16394 cycles
   Runtime:                         0.000002 seconds
   Stalls:                          1 cycles
       Load Only:                   0 cycles
       Store Only:                  1 cycles
       Compute Only:                0 cycles
       Compute & Store:             0 cycles
       Load & Store:                0 cycles
       Load & Compute:              0 cycles
       Load & Compute & Store:      0 cycles
   Executed Nodes:                  16392 cycles
       Load Only:                   0 cycles
       Store Only:                  5 cycles
       Compute Only:                1 cycles
       Compute & Store:             32 cycles
       Load & Store:                0 cycles
       Load & Compute:              7 cycles
       Load & Compute & Store:      16347 cycles

   ========= Runtime FU's ========= (Max | Avg) ===
   Counter FU's:                      32 | 0.031233
   Integer Add/Sub FU's:               0 | 0.000000
   Integer Mul/Div FU's:               0 | 0.000000
   Integer Shifter FU's:               0 | 0.000000
   Integer Bitwise FU's:               1 | 0.000061
   Floating Point Float Add/Sub:       1 | 0.999390
   Floating Point Double Add/Sub:      0 | 0.000000
   Floating Point Float Mul/Div:       0 | 0.000000
   Floating Point Double Mul/Div:      0 | 0.000000
   0 Cycle Compare FU's:             101 | 0.031672
   GEP Instruction FU's:              96 | 0.031231
   Type Conversion FU's:               7 | 0.004523

   ========= Static FU's ==========================
   Counter FU's:                    0
   Integer Add/Sub FU's:            0
   Integer Mul/Div FU's:            0
   Integer Shifter FU's:            0
   Integer Bitwise FU's:            0
   Floating Point Float Add/Sub:    0
   Floating Point Double Add/Sub:   0
   Floating Point Float Mul/Div:    0
   Floating Point Double Mul/Div:   0
   0 Cycle Compare FU's:            0
   GEP Instruction FU's:            0
   Type Conversion FU's:            0
   Other:                           0

   ========= Pipeline Register Usage =============
   Total Number of Registers:       5641
   Max Register Usage Per Cycle:    135
   Avg Register Usage Per Cycle:    8.089301
   Avg Register Size (Bytes):       5.980606

   ========= Memory Configuration =================
   Cache Bus Ports:                 0
   Shared Cache Size:               0kB
   Local Bus Ports:                 0
   Private SPM Size:                256kB
   Private Read Ports:              0
   Private Write Ports:             0
   Private Read Bus Width:          64
   Private Write Bus Width:         64
       Memory Reads:                0
       Memory Writes:               0
   ========= Power Analysis ======================
   FU Leakage Power:                0.015866 mW 
   FU Dynamic Power:                0.231200 mW 
   FU Total Power:                  0.247066 mW 

   Registers Leakage Power:          0.003521 mW 
   Registers Dynamic Power:          0.015322 mW 
       Register Reads (Bits):        132616
       Register Writes (Bits):       133658
   Registers Total Power:            0.018843 mW

   SPM Leakage Power:               0.099590 mW
   SPM Read Dynamic Power:          0.965320 mW
   SPM Write Dynamic Power:         0.561696 mW
   SPM Total Power:                 1.626606 mW

   Cache Leakage Power:             0.000000 mW
   Cache Read Dynamic Power:        0.000000 mW
   Cache Write Dynamic Power:       0.000000 mW
   Cache Total Power:               0.000000 mW

   Accelerator Power:               0.265909 mW
   Accelerator Power (SPM):         1.892515 mW
   Accelerator Power (Cache):       0.265909 mW

   ========= Area Analysis =======================
   FU Area:                         2113.963867 um^2 (0.002114 mm^2)
   Register Area:                   286.180725 um^2 (0.000286 mm^2)
   SPM Area:                        1894.672457 um^2 (0.001895 mm^2)
   Cache Area:                      0.000000 um^2 (0.000000 mm^2)

   Accelerator Area:                2400.144531 um^2 (0.002400 mm^2)
   Accelerator Area (SPM):          4294.816988 um^2 (0.004295 mm^2)
   Accelerator Area (Cache):        2400.144531 um^2 (0.002400 mm^2)

   ========= SPM Resizing  =======================
   SPM Optimized Leakage Power:     0.003640 mW
   SPM Opt Area:                    97.220725 um^2

661997576500: system.acctest.isp0_dma: Transfer completed in 3.84 us
662019597500: system.acctest.elem_matrix0_dma: SRC:0x0000000024020020, DST:0x00000000855047f0, LEN:65536
662031437500: system.acctest.elem_matrix0_dma: Transfer completed in 11.84 us
********************************************************************************
system.acctest.isp0.compute
   ========= Performance Analysis =============
   Setup Time:                      0.217539seconds
   Simulation Time:                 212.147186seconds
   System Clock:                    1.000000GHz
   Transistor Latency:              1ns
   Runtime:                         34857 cycles
   Runtime:                         34.857000 us
   Stalls:                          1 cycles
   Executed Nodes:                  34855 cycles

********************************************************************************
   ========= Performance Analysis =================
   Setup Time:                      217539010.000000ns
   Simulation Time:                 212147185786.000000ns
   System Clock:                    1.000000GHz
   Transistor Latency:              0ns
   Runtime:                         34857 cycles
   Runtime:                         0.000003 seconds
   Stalls:                          1 cycles
       Load Only:                   0 cycles
       Store Only:                  1 cycles
       Compute Only:                0 cycles
       Compute & Store:             0 cycles
       Load & Store:                0 cycles
       Load & Compute:              0 cycles
       Load & Compute & Store:      0 cycles
   Executed Nodes:                  34855 cycles
       Load Only:                   0 cycles
       Store Only:                  1 cycles
       Compute Only:                3716 cycles
       Compute & Store:             18631 cycles
       Load & Store:                0 cycles
       Load & Compute:              3340 cycles
       Load & Compute & Store:      9167 cycles

   ========= Runtime FU's ========= (Max | Avg) ===
   Counter FU's:                      10 | 0.118160
   Integer Add/Sub FU's:              74 | 0.084377
   Integer Mul/Div FU's:              11 | 0.043920
   Integer Shifter FU's:               7 | 0.335903
   Integer Bitwise FU's:               4 | 0.059486
   Floating Point Float Add/Sub:      49 | 0.119993
   Floating Point Double Add/Sub:      0 | 0.000000
   Floating Point Float Mul/Div:      73 | 0.645039
   Floating Point Double Mul/Div:      0 | 0.000000
   0 Cycle Compare FU's:              91 | 0.606525
   GEP Instruction FU's:              33 | 0.117509
   Type Conversion FU's:             108 | 0.401632

   ========= Static FU's ==========================
   Counter FU's:                    0
   Integer Add/Sub FU's:            0
   Integer Mul/Div FU's:            0
   Integer Shifter FU's:            0
   Integer Bitwise FU's:            0
   Floating Point Float Add/Sub:    0
   Floating Point Double Add/Sub:   0
   Floating Point Float Mul/Div:    0
   Floating Point Double Mul/Div:   0
   0 Cycle Compare FU's:            0
   GEP Instruction FU's:            0
   Type Conversion FU's:            0
   Other:                           0

   ========= Pipeline Register Usage =============
   Total Number of Registers:       1620
   Max Register Usage Per Cycle:    148
   Avg Register Usage Per Cycle:    58.786843
   Avg Register Size (Bytes):       5.073357

   ========= Memory Configuration =================
   Cache Bus Ports:                 0
   Shared Cache Size:               0kB
   Local Bus Ports:                 0
   Private SPM Size:                112kB
   Private Read Ports:              0
   Private Write Ports:             0
   Private Read Bus Width:          64
   Private Write Bus Width:         64
       Memory Reads:                0
       Memory Writes:               0
   ========= Power Analysis ======================
   FU Leakage Power:                1.512678 mW 
   FU Dynamic Power:                9.402902 mW 
   FU Total Power:                  10.915580 mW 

   Registers Leakage Power:          0.021654 mW 
   Registers Dynamic Power:          3.083750 mW 
       Register Reads (Bits):        2049133
       Register Writes (Bits):       2049168
   Registers Total Power:            3.105404 mW

   SPM Leakage Power:               0.054673 mW
   SPM Read Dynamic Power:          7.521408 mW
   SPM Write Dynamic Power:         3.922488 mW
   SPM Total Power:                 11.498569 mW

   Cache Leakage Power:             0.000000 mW
   Cache Read Dynamic Power:        0.000000 mW
   Cache Write Dynamic Power:       0.000000 mW
   Cache Total Power:               0.000000 mW

   Accelerator Power:               14.020984 mW
   Accelerator Power (SPM):         25.519553 mW
   Accelerator Power (Cache):       14.020984 mW

   ========= Area Analysis =======================
   FU Area:                         159031.812500 um^2 (0.159032 mm^2)
   Register Area:                   1760.064941 um^2 (0.001760 mm^2)
   SPM Area:                        1537.371337 um^2 (0.001537 mm^2)
   Cache Area:                      0.000000 um^2 (0.000000 mm^2)

   Accelerator Area:                160791.875000 um^2 (0.160792 mm^2)
   Accelerator Area (SPM):          162329.246337 um^2 (0.162329 mm^2)
   Accelerator Area (Cache):        160791.875000 um^2 (0.160792 mm^2)

   ========= SPM Resizing  =======================
   SPM Optimized Leakage Power:     0.005165 mW
   SPM Opt Area:                    291.630286 um^2

662048859500: system.acctest.elem_matrix0_dma: SRC:0x00000000854747e8, DST:0x0000000024000020, LEN:65536
662072089500: system.acctest.elem_matrix0_dma: Transfer completed in 23.23 us
********************************************************************************
system.acctest.elem_matrix0.compute
   ========= Performance Analysis =============
   Setup Time:                      3.897356seconds
   Simulation Time:                 35.084429seconds
   System Clock:                    1.000000GHz
   Transistor Latency:              1ns
   Runtime:                         16392 cycles
   Runtime:                         16.392000 us
   Stalls:                          0 cycles
   Executed Nodes:                  16391 cycles

********************************************************************************
   ========= Performance Analysis =================
   Setup Time:                      3897356464.000000ns
   Simulation Time:                 35084429475.000000ns
   System Clock:                    1.000000GHz
   Transistor Latency:              0ns
   Runtime:                         16392 cycles
   Runtime:                         0.000002 seconds
   Stalls:                          0 cycles
       Load Only:                   0 cycles
       Store Only:                  0 cycles
       Compute Only:                0 cycles
       Compute & Store:             0 cycles
       Load & Store:                0 cycles
       Load & Compute:              0 cycles
       Load & Compute & Store:      0 cycles
   Executed Nodes:                  16391 cycles
       Load Only:                   0 cycles
       Store Only:                  4 cycles
       Compute Only:                1 cycles
       Compute & Store:             32 cycles
       Load & Store:                0 cycles
       Load & Compute:              6 cycles
       Load & Compute & Store:      16348 cycles

   ========= Runtime FU's ========= (Max | Avg) ===
   Counter FU's:                      32 | 0.031237
   Integer Add/Sub FU's:               0 | 0.000000
   Integer Mul/Div FU's:               0 | 0.000000
   Integer Shifter FU's:               0 | 0.000000
   Integer Bitwise FU's:               1 | 0.000061
   Floating Point Float Add/Sub:       0 | 0.000000
   Floating Point Double Add/Sub:      0 | 0.000000
   Floating Point Float Mul/Div:       1 | 0.999512
   Floating Point Double Mul/Div:      0 | 0.000000
   0 Cycle Compare FU's:             101 | 0.031657
   GEP Instruction FU's:              96 | 0.031235
   Type Conversion FU's:               7 | 0.004523

   ========= Static FU's ==========================
   Counter FU's:                    0
   Integer Add/Sub FU's:            0
   Integer Mul/Div FU's:            0
   Integer Shifter FU's:            0
   Integer Bitwise FU's:            0
   Floating Point Float Add/Sub:    0
   Floating Point Double Add/Sub:   0
   Floating Point Float Mul/Div:    0
   Floating Point Double Mul/Div:   0
   0 Cycle Compare FU's:            0
   GEP Instruction FU's:            0
   Type Conversion FU's:            0
   Other:                           0

   ========= Pipeline Register Usage =============
   Total Number of Registers:       5641
   Max Register Usage Per Cycle:    135
   Avg Register Usage Per Cycle:    8.090288
   Avg Register Size (Bytes):       5.980606

   ========= Memory Configuration =================
   Cache Bus Ports:                 0
   Shared Cache Size:               0kB
   Local Bus Ports:                 0
   Private SPM Size:                256kB
   Private Read Ports:              0
   Private Write Ports:             0
   Private Read Bus Width:          64
   Private Write Bus Width:         64
       Memory Reads:                0
       Memory Writes:               0
   ========= Power Analysis ======================
   FU Leakage Power:                0.045377 mW 
   FU Dynamic Power:                0.293182 mW 
   FU Total Power:                  0.338559 mW 

   Registers Leakage Power:          0.003521 mW 
   Registers Dynamic Power:          0.015320 mW 
       Register Reads (Bits):        132616
       Register Writes (Bits):       133658
   Registers Total Power:            0.018841 mW

   SPM Leakage Power:               0.099590 mW
   SPM Read Dynamic Power:          1.510371 mW
   SPM Write Dynamic Power:         1.004807 mW
   SPM Total Power:                 2.614768 mW

   Cache Leakage Power:             0.000000 mW
   Cache Read Dynamic Power:        0.000000 mW
   Cache Write Dynamic Power:       0.000000 mW
   Cache Total Power:               0.000000 mW

   Accelerator Power:               0.357400 mW
   Accelerator Power (SPM):         2.972168 mW
   Accelerator Power (Cache):       0.357400 mW

   ========= Area Analysis =======================
   FU Area:                         5472.068359 um^2 (0.005472 mm^2)
   Register Area:                   286.180725 um^2 (0.000286 mm^2)
   SPM Area:                        1894.672457 um^2 (0.001895 mm^2)
   Cache Area:                      0.000000 um^2 (0.000000 mm^2)

   Accelerator Area:                5758.249023 um^2 (0.005758 mm^2)
   Accelerator Area (SPM):          7652.921481 um^2 (0.007653 mm^2)
   Accelerator Area (Cache):        5758.249023 um^2 (0.005758 mm^2)

   ========= SPM Resizing  =======================
   SPM Optimized Leakage Power:     0.003640 mW
   SPM Opt Area:                    97.220725 um^2

662101735500: system.acctest.elem_matrix1_dma: SRC:0x0000000024120020, DST:0x0000000085e84830, LEN:65536
662113655500: system.acctest.elem_matrix1_dma: Transfer completed in 11.92 us
662131765500: system.acctest.elem_matrix1_dma: SRC:0x0000000024020020, DST:0x0000000024100020, LEN:65536
662142015500: system.acctest.elem_matrix1_dma: Transfer completed in 10.25 us
662148478500: system.acctest.elem_matrix1_dma: SRC:0x00000000854947e8, DST:0x0000000024110020, LEN:65536
662171578500: system.acctest.elem_matrix1_dma: Transfer completed in 23.1 us
********************************************************************************
system.acctest.elem_matrix1.compute
   ========= Performance Analysis =============
   Setup Time:                      4.153423seconds
   Simulation Time:                 36.562700seconds
   System Clock:                    1.000000GHz
   Transistor Latency:              1ns
   Runtime:                         16392 cycles
   Runtime:                         16.392000 us
   Stalls:                          0 cycles
   Executed Nodes:                  16391 cycles

********************************************************************************
   ========= Performance Analysis =================
   Setup Time:                      4153423465.000000ns
   Simulation Time:                 36562700057.000000ns
   System Clock:                    1.000000GHz
   Transistor Latency:              0ns
   Runtime:                         16392 cycles
   Runtime:                         0.000002 seconds
   Stalls:                          0 cycles
       Load Only:                   0 cycles
       Store Only:                  0 cycles
       Compute Only:                0 cycles
       Compute & Store:             0 cycles
       Load & Store:                0 cycles
       Load & Compute:              0 cycles
       Load & Compute & Store:      0 cycles
   Executed Nodes:                  16391 cycles
       Load Only:                   0 cycles
       Store Only:                  4 cycles
       Compute Only:                1 cycles
       Compute & Store:             32 cycles
       Load & Store:                0 cycles
       Load & Compute:              6 cycles
       Load & Compute & Store:      16348 cycles

   ========= Runtime FU's ========= (Max | Avg) ===
   Counter FU's:                      32 | 0.031237
   Integer Add/Sub FU's:               0 | 0.000000
   Integer Mul/Div FU's:               0 | 0.000000
   Integer Shifter FU's:               0 | 0.000000
   Integer Bitwise FU's:               1 | 0.000061
   Floating Point Float Add/Sub:       0 | 0.000000
   Floating Point Double Add/Sub:      0 | 0.000000
   Floating Point Float Mul/Div:       1 | 0.999512
   Floating Point Double Mul/Div:      0 | 0.000000
   0 Cycle Compare FU's:             101 | 0.031657
   GEP Instruction FU's:              96 | 0.031235
   Type Conversion FU's:               7 | 0.004523

   ========= Static FU's ==========================
   Counter FU's:                    0
   Integer Add/Sub FU's:            0
   Integer Mul/Div FU's:            0
   Integer Shifter FU's:            0
   Integer Bitwise FU's:            0
   Floating Point Float Add/Sub:    0
   Floating Point Double Add/Sub:   0
   Floating Point Float Mul/Div:    0
   Floating Point Double Mul/Div:   0
   0 Cycle Compare FU's:            0
   GEP Instruction FU's:            0
   Type Conversion FU's:            0
   Other:                           0

   ========= Pipeline Register Usage =============
   Total Number of Registers:       5641
   Max Register Usage Per Cycle:    135
   Avg Register Usage Per Cycle:    8.090288
   Avg Register Size (Bytes):       5.980606

   ========= Memory Configuration =================
   Cache Bus Ports:                 0
   Shared Cache Size:               0kB
   Local Bus Ports:                 0
   Private SPM Size:                256kB
   Private Read Ports:              0
   Private Write Ports:             0
   Private Read Bus Width:          64
   Private Write Bus Width:         64
       Memory Reads:                0
       Memory Writes:               0
   ========= Power Analysis ======================
   FU Leakage Power:                0.045377 mW 
   FU Dynamic Power:                0.293182 mW 
   FU Total Power:                  0.338559 mW 

   Registers Leakage Power:          0.003521 mW 
   Registers Dynamic Power:          0.015320 mW 
       Register Reads (Bits):        132616
       Register Writes (Bits):       133658
   Registers Total Power:            0.018841 mW

   SPM Leakage Power:               0.099590 mW
   SPM Read Dynamic Power:          1.510371 mW
   SPM Write Dynamic Power:         1.004807 mW
   SPM Total Power:                 2.614768 mW

   Cache Leakage Power:             0.000000 mW
   Cache Read Dynamic Power:        0.000000 mW
   Cache Write Dynamic Power:       0.000000 mW
   Cache Total Power:               0.000000 mW

   Accelerator Power:               0.357400 mW
   Accelerator Power (SPM):         2.972168 mW
   Accelerator Power (Cache):       0.357400 mW

   ========= Area Analysis =======================
   FU Area:                         5472.068359 um^2 (0.005472 mm^2)
   Register Area:                   286.180725 um^2 (0.000286 mm^2)
   SPM Area:                        1894.672457 um^2 (0.001895 mm^2)
   Cache Area:                      0.000000 um^2 (0.000000 mm^2)

   Accelerator Area:                5758.249023 um^2 (0.005758 mm^2)
   Accelerator Area (SPM):          7652.921481 um^2 (0.007653 mm^2)
   Accelerator Area (Cache):        5758.249023 um^2 (0.005758 mm^2)

   ========= SPM Resizing  =======================
   SPM Optimized Leakage Power:     0.003640 mW
   SPM Opt Area:                    97.220725 um^2

662207022500: system.acctest.elem_matrix0_dma: SRC:0x00000000854847e8, DST:0x0000000024000020, LEN:65536
662230312500: system.acctest.elem_matrix0_dma: Transfer completed in 23.29 us
********************************************************************************
system.acctest.elem_matrix0.compute
   ========= Performance Analysis =============
   Setup Time:                      3.946433seconds
   Simulation Time:                 36.922535seconds
   System Clock:                    1.000000GHz
   Transistor Latency:              1ns
   Runtime:                         16394 cycles
   Runtime:                         16.394000 us
   Stalls:                          1 cycles
   Executed Nodes:                  16392 cycles

********************************************************************************
   ========= Performance Analysis =================
   Setup Time:                      3946433210.000000ns
   Simulation Time:                 36922535030.000000ns
   System Clock:                    1.000000GHz
   Transistor Latency:              0ns
   Runtime:                         16394 cycles
   Runtime:                         0.000002 seconds
   Stalls:                          1 cycles
       Load Only:                   0 cycles
       Store Only:                  1 cycles
       Compute Only:                0 cycles
       Compute & Store:             0 cycles
       Load & Store:                0 cycles
       Load & Compute:              0 cycles
       Load & Compute & Store:      0 cycles
   Executed Nodes:                  16392 cycles
       Load Only:                   0 cycles
       Store Only:                  5 cycles
       Compute Only:                1 cycles
       Compute & Store:             32 cycles
       Load & Store:                0 cycles
       Load & Compute:              7 cycles
       Load & Compute & Store:      16347 cycles

   ========= Runtime FU's ========= (Max | Avg) ===
   Counter FU's:                      32 | 0.031233
   Integer Add/Sub FU's:               0 | 0.000000
   Integer Mul/Div FU's:               0 | 0.000000
   Integer Shifter FU's:               0 | 0.000000
   Integer Bitwise FU's:               1 | 0.000061
   Floating Point Float Add/Sub:       1 | 0.999390
   Floating Point Double Add/Sub:      0 | 0.000000
   Floating Point Float Mul/Div:       0 | 0.000000
   Floating Point Double Mul/Div:      0 | 0.000000
   0 Cycle Compare FU's:             101 | 0.031672
   GEP Instruction FU's:              96 | 0.031231
   Type Conversion FU's:               7 | 0.004523

   ========= Static FU's ==========================
   Counter FU's:                    0
   Integer Add/Sub FU's:            0
   Integer Mul/Div FU's:            0
   Integer Shifter FU's:            0
   Integer Bitwise FU's:            0
   Floating Point Float Add/Sub:    0
   Floating Point Double Add/Sub:   0
   Floating Point Float Mul/Div:    0
   Floating Point Double Mul/Div:   0
   0 Cycle Compare FU's:            0
   GEP Instruction FU's:            0
   Type Conversion FU's:            0
   Other:                           0

   ========= Pipeline Register Usage =============
   Total Number of Registers:       5641
   Max Register Usage Per Cycle:    135
   Avg Register Usage Per Cycle:    8.089301
   Avg Register Size (Bytes):       5.980606

   ========= Memory Configuration =================
   Cache Bus Ports:                 0
   Shared Cache Size:               0kB
   Local Bus Ports:                 0
   Private SPM Size:                256kB
   Private Read Ports:              0
   Private Write Ports:             0
   Private Read Bus Width:          64
   Private Write Bus Width:         64
       Memory Reads:                0
       Memory Writes:               0
   ========= Power Analysis ======================
   FU Leakage Power:                0.015866 mW 
   FU Dynamic Power:                0.231200 mW 
   FU Total Power:                  0.247066 mW 

   Registers Leakage Power:          0.003521 mW 
   Registers Dynamic Power:          0.015322 mW 
       Register Reads (Bits):        132616
       Register Writes (Bits):       133658
   Registers Total Power:            0.018843 mW

   SPM Leakage Power:               0.099590 mW
   SPM Read Dynamic Power:          2.004331 mW
   SPM Write Dynamic Power:         1.339804 mW
   SPM Total Power:                 3.443725 mW

   Cache Leakage Power:             0.000000 mW
   Cache Read Dynamic Power:        0.000000 mW
   Cache Write Dynamic Power:       0.000000 mW
   Cache Total Power:               0.000000 mW

   Accelerator Power:               0.265909 mW
   Accelerator Power (SPM):         3.709634 mW
   Accelerator Power (Cache):       0.265909 mW

   ========= Area Analysis =======================
   FU Area:                         2113.963867 um^2 (0.002114 mm^2)
   Register Area:                   286.180725 um^2 (0.000286 mm^2)
   SPM Area:                        1894.672457 um^2 (0.001895 mm^2)
   Cache Area:                      0.000000 um^2 (0.000000 mm^2)

   Accelerator Area:                2400.144531 um^2 (0.002400 mm^2)
   Accelerator Area (SPM):          4294.816988 um^2 (0.004295 mm^2)
   Accelerator Area (Cache):        2400.144531 um^2 (0.002400 mm^2)

   ========= SPM Resizing  =======================
   SPM Optimized Leakage Power:     0.003640 mW
   SPM Opt Area:                    97.220725 um^2

662266367500: system.acctest.elem_matrix1_dma: SRC:0x00000000854a47e8, DST:0x0000000024100020, LEN:65536
662289647500: system.acctest.elem_matrix1_dma: Transfer completed in 23.28 us
********************************************************************************
system.acctest.elem_matrix1.compute
   ========= Performance Analysis =============
   Setup Time:                      3.958128seconds
   Simulation Time:                 37.362568seconds
   System Clock:                    1.000000GHz
   Transistor Latency:              1ns
   Runtime:                         16394 cycles
   Runtime:                         16.394000 us
   Stalls:                          1 cycles
   Executed Nodes:                  16392 cycles

********************************************************************************
   ========= Performance Analysis =================
   Setup Time:                      3958127731.000000ns
   Simulation Time:                 37362568049.000000ns
   System Clock:                    1.000000GHz
   Transistor Latency:              0ns
   Runtime:                         16394 cycles
   Runtime:                         0.000002 seconds
   Stalls:                          1 cycles
       Load Only:                   0 cycles
       Store Only:                  1 cycles
       Compute Only:                0 cycles
       Compute & Store:             0 cycles
       Load & Store:                0 cycles
       Load & Compute:              0 cycles
       Load & Compute & Store:      0 cycles
   Executed Nodes:                  16392 cycles
       Load Only:                   0 cycles
       Store Only:                  5 cycles
       Compute Only:                1 cycles
       Compute & Store:             32 cycles
       Load & Store:                0 cycles
       Load & Compute:              7 cycles
       Load & Compute & Store:      16347 cycles

   ========= Runtime FU's ========= (Max | Avg) ===
   Counter FU's:                      32 | 0.031233
   Integer Add/Sub FU's:               0 | 0.000000
   Integer Mul/Div FU's:               0 | 0.000000
   Integer Shifter FU's:               0 | 0.000000
   Integer Bitwise FU's:               1 | 0.000061
   Floating Point Float Add/Sub:       1 | 0.999390
   Floating Point Double Add/Sub:      0 | 0.000000
   Floating Point Float Mul/Div:       0 | 0.000000
   Floating Point Double Mul/Div:      0 | 0.000000
   0 Cycle Compare FU's:             101 | 0.031672
   GEP Instruction FU's:              96 | 0.031231
   Type Conversion FU's:               7 | 0.004523

   ========= Static FU's ==========================
   Counter FU's:                    0
   Integer Add/Sub FU's:            0
   Integer Mul/Div FU's:            0
   Integer Shifter FU's:            0
   Integer Bitwise FU's:            0
   Floating Point Float Add/Sub:    0
   Floating Point Double Add/Sub:   0
   Floating Point Float Mul/Div:    0
   Floating Point Double Mul/Div:   0
   0 Cycle Compare FU's:            0
   GEP Instruction FU's:            0
   Type Conversion FU's:            0
   Other:                           0

   ========= Pipeline Register Usage =============
   Total Number of Registers:       5641
   Max Register Usage Per Cycle:    135
   Avg Register Usage Per Cycle:    8.089301
   Avg Register Size (Bytes):       5.980606

   ========= Memory Configuration =================
   Cache Bus Ports:                 0
   Shared Cache Size:               0kB
   Local Bus Ports:                 0
   Private SPM Size:                256kB
   Private Read Ports:              0
   Private Write Ports:             0
   Private Read Bus Width:          64
   Private Write Bus Width:         64
       Memory Reads:                0
       Memory Writes:               0
   ========= Power Analysis ======================
   FU Leakage Power:                0.015866 mW 
   FU Dynamic Power:                0.231200 mW 
   FU Total Power:                  0.247066 mW 

   Registers Leakage Power:          0.003521 mW 
   Registers Dynamic Power:          0.015322 mW 
       Register Reads (Bits):        132616
       Register Writes (Bits):       133658
   Registers Total Power:            0.018843 mW

   SPM Leakage Power:               0.099590 mW
   SPM Read Dynamic Power:          2.004331 mW
   SPM Write Dynamic Power:         1.339804 mW
   SPM Total Power:                 3.443725 mW

   Cache Leakage Power:             0.000000 mW
   Cache Read Dynamic Power:        0.000000 mW
   Cache Write Dynamic Power:       0.000000 mW
   Cache Total Power:               0.000000 mW

   Accelerator Power:               0.265909 mW
   Accelerator Power (SPM):         3.709634 mW
   Accelerator Power (Cache):       0.265909 mW

   ========= Area Analysis =======================
   FU Area:                         2113.963867 um^2 (0.002114 mm^2)
   Register Area:                   286.180725 um^2 (0.000286 mm^2)
   SPM Area:                        1894.672457 um^2 (0.001895 mm^2)
   Cache Area:                      0.000000 um^2 (0.000000 mm^2)

   Accelerator Area:                2400.144531 um^2 (0.002400 mm^2)
   Accelerator Area (SPM):          4294.816988 um^2 (0.004295 mm^2)
   Accelerator Area (Cache):        2400.144531 um^2 (0.002400 mm^2)

   ========= SPM Resizing  =======================
   SPM Optimized Leakage Power:     0.003640 mW
   SPM Opt Area:                    97.220725 um^2

********************************************************************************
system.acctest.elem_matrix0.compute
   ========= Performance Analysis =============
   Setup Time:                      3.840535seconds
   Simulation Time:                 36.023672seconds
   System Clock:                    1.000000GHz
   Transistor Latency:              1ns
   Runtime:                         12316 cycles
   Runtime:                         12.316000 us
   Stalls:                          4072 cycles
   Executed Nodes:                  8243 cycles

********************************************************************************
   ========= Performance Analysis =================
   Setup Time:                      3840534972.000000ns
   Simulation Time:                 36023671962.000000ns
   System Clock:                    1.000000GHz
   Transistor Latency:              0ns
   Runtime:                         12316 cycles
   Runtime:                         0.000001 seconds
   Stalls:                          4072 cycles
       Load Only:                   0 cycles
       Store Only:                  4072 cycles
       Compute Only:                0 cycles
       Compute & Store:             0 cycles
       Load & Store:                0 cycles
       Load & Compute:              0 cycles
       Load & Compute & Store:      0 cycles
   Executed Nodes:                  8243 cycles
       Load Only:                   0 cycles
       Store Only:                  16 cycles
       Compute Only:                1 cycles
       Compute & Store:             48 cycles
       Load & Store:                0 cycles
       Load & Compute:              50 cycles
       Load & Compute & Store:      8128 cycles

   ========= Runtime FU's ========= (Max | Avg) ===
   Counter FU's:                      32 | 0.041574
   Integer Add/Sub FU's:               0 | 0.000000
   Integer Mul/Div FU's:               0 | 0.000000
   Integer Shifter FU's:               0 | 0.000000
   Integer Bitwise FU's:               1 | 0.000081
   Floating Point Float Add/Sub:      66 | 0.191801
   Floating Point Double Add/Sub:      0 | 0.000000
   Floating Point Float Mul/Div:      34 | 0.039279
   Floating Point Double Mul/Div:      0 | 0.000000
   0 Cycle Compare FU's:              15 | 0.016764
   GEP Instruction FU's:              64 | 0.041572
   Type Conversion FU's:              55 | 0.097954

   ========= Static FU's ==========================
   Counter FU's:                    0
   Integer Add/Sub FU's:            0
   Integer Mul/Div FU's:            0
   Integer Shifter FU's:            0
   Integer Bitwise FU's:            0
   Floating Point Float Add/Sub:    0
   Floating Point Double Add/Sub:   0
   Floating Point Float Mul/Div:    0
   Floating Point Double Mul/Div:   0
   0 Cycle Compare FU's:            0
   GEP Instruction FU's:            0
   Type Conversion FU's:            0
   Other:                           0

   ========= Pipeline Register Usage =============
   Total Number of Registers:       5641
   Max Register Usage Per Cycle:    115
   Avg Register Usage Per Cycle:    18.708022
   Avg Register Size (Bytes):       5.993295

   ========= Memory Configuration =================
   Cache Bus Ports:                 0
   Shared Cache Size:               0kB
   Local Bus Ports:                 0
   Private SPM Size:                256kB
   Private Read Ports:              0
   Private Write Ports:             0
   Private Read Bus Width:          64
   Private Write Bus Width:         64
       Memory Reads:                0
       Memory Writes:               0
   ========= Power Analysis ======================
   FU Leakage Power:                1.052184 mW 
   FU Dynamic Power:                1.390106 mW 
   FU Total Power:                  2.442290 mW 

   Registers Leakage Power:          0.007939 mW 
   Registers Dynamic Power:          0.045067 mW 
       Register Reads (Bits):        230408
       Register Writes (Bits):       231961
   Registers Total Power:            0.053006 mW

   SPM Leakage Power:               0.099590 mW
   SPM Read Dynamic Power:          2.167863 mW
   SPM Write Dynamic Power:         1.590245 mW
   SPM Total Power:                 3.857697 mW

   Cache Leakage Power:             0.000000 mW
   Cache Read Dynamic Power:        0.000000 mW
   Cache Write Dynamic Power:       0.000000 mW
   Cache Total Power:               0.000000 mW

   Accelerator Power:               2.495296 mW
   Accelerator Power (SPM):         6.352993 mW
   Accelerator Power (Cache):       2.495296 mW

   ========= Area Analysis =======================
   FU Area:                         141669.281250 um^2 (0.141669 mm^2)
   Register Area:                   645.272827 um^2 (0.000645 mm^2)
   SPM Area:                        1894.672457 um^2 (0.001895 mm^2)
   Cache Area:                      0.000000 um^2 (0.000000 mm^2)

   Accelerator Area:                142314.546875 um^2 (0.142315 mm^2)
   Accelerator Area (SPM):          144209.219332 um^2 (0.144209 mm^2)
   Accelerator Area (Cache):        142314.546875 um^2 (0.142315 mm^2)

   ========= SPM Resizing  =======================
   SPM Optimized Leakage Power:     0.003117 mW
   SPM Opt Area:                    91.617373 um^2

********************************************************************************
system.acctest.elem_matrix1.compute
   ========= Performance Analysis =============
   Setup Time:                      3.794358seconds
   Simulation Time:                 41.462140seconds
   System Clock:                    1.000000GHz
   Transistor Latency:              1ns
   Runtime:                         12316 cycles
   Runtime:                         12.316000 us
   Stalls:                          4072 cycles
   Executed Nodes:                  8243 cycles

********************************************************************************
   ========= Performance Analysis =================
   Setup Time:                      3794357891.000000ns
   Simulation Time:                 41462140330.000000ns
   System Clock:                    1.000000GHz
   Transistor Latency:              0ns
   Runtime:                         12316 cycles
   Runtime:                         0.000001 seconds
   Stalls:                          4072 cycles
       Load Only:                   0 cycles
       Store Only:                  4072 cycles
       Compute Only:                0 cycles
       Compute & Store:             0 cycles
       Load & Store:                0 cycles
       Load & Compute:              0 cycles
       Load & Compute & Store:      0 cycles
   Executed Nodes:                  8243 cycles
       Load Only:                   0 cycles
       Store Only:                  16 cycles
       Compute Only:                1 cycles
       Compute & Store:             48 cycles
       Load & Store:                0 cycles
       Load & Compute:              50 cycles
       Load & Compute & Store:      8128 cycles

   ========= Runtime FU's ========= (Max | Avg) ===
   Counter FU's:                      32 | 0.041574
   Integer Add/Sub FU's:               0 | 0.000000
   Integer Mul/Div FU's:               0 | 0.000000
   Integer Shifter FU's:               0 | 0.000000
   Integer Bitwise FU's:               1 | 0.000081
   Floating Point Float Add/Sub:      66 | 0.191801
   Floating Point Double Add/Sub:      0 | 0.000000
   Floating Point Float Mul/Div:      34 | 0.039279
   Floating Point Double Mul/Div:      0 | 0.000000
   0 Cycle Compare FU's:              15 | 0.016764
   GEP Instruction FU's:              64 | 0.041572
   Type Conversion FU's:              55 | 0.097954

   ========= Static FU's ==========================
   Counter FU's:                    0
   Integer Add/Sub FU's:            0
   Integer Mul/Div FU's:            0
   Integer Shifter FU's:            0
   Integer Bitwise FU's:            0
   Floating Point Float Add/Sub:    0
   Floating Point Double Add/Sub:   0
   Floating Point Float Mul/Div:    0
   Floating Point Double Mul/Div:   0
   0 Cycle Compare FU's:            0
   GEP Instruction FU's:            0
   Type Conversion FU's:            0
   Other:                           0

   ========= Pipeline Register Usage =============
   Total Number of Registers:       5641
   Max Register Usage Per Cycle:    115
   Avg Register Usage Per Cycle:    18.708022
   Avg Register Size (Bytes):       5.993295

   ========= Memory Configuration =================
   Cache Bus Ports:                 0
   Shared Cache Size:               0kB
   Local Bus Ports:                 0
   Private SPM Size:                256kB
   Private Read Ports:              0
   Private Write Ports:             0
   Private Read Bus Width:          64
   Private Write Bus Width:         64
       Memory Reads:                0
       Memory Writes:               0
   ========= Power Analysis ======================
   FU Leakage Power:                1.052184 mW 
   FU Dynamic Power:                1.390106 mW 
   FU Total Power:                  2.442290 mW 

   Registers Leakage Power:          0.007939 mW 
   Registers Dynamic Power:          0.045067 mW 
       Register Reads (Bits):        230408
       Register Writes (Bits):       231961
   Registers Total Power:            0.053006 mW

   SPM Leakage Power:               0.099590 mW
   SPM Read Dynamic Power:          2.167863 mW
   SPM Write Dynamic Power:         1.590245 mW
   SPM Total Power:                 3.857697 mW

   Cache Leakage Power:             0.000000 mW
   Cache Read Dynamic Power:        0.000000 mW
   Cache Write Dynamic Power:       0.000000 mW
   Cache Total Power:               0.000000 mW

   Accelerator Power:               2.495296 mW
   Accelerator Power (SPM):         6.352993 mW
   Accelerator Power (Cache):       2.495296 mW

   ========= Area Analysis =======================
   FU Area:                         141669.281250 um^2 (0.141669 mm^2)
   Register Area:                   645.272827 um^2 (0.000645 mm^2)
   SPM Area:                        1894.672457 um^2 (0.001895 mm^2)
   Cache Area:                      0.000000 um^2 (0.000000 mm^2)

   Accelerator Area:                142314.546875 um^2 (0.142315 mm^2)
   Accelerator Area (SPM):          144209.219332 um^2 (0.144209 mm^2)
   Accelerator Area (Cache):        142314.546875 um^2 (0.142315 mm^2)

   ========= SPM Resizing  =======================
   SPM Optimized Leakage Power:     0.003117 mW
   SPM Opt Area:                    91.617373 um^2

662382646500: system.acctest.elem_matrix0_dma: SRC:0x0000000087af4a28, DST:0x0000000024010020, LEN:65536
662405886500: system.acctest.elem_matrix0_dma: Transfer completed in 23.24 us
********************************************************************************
system.acctest.elem_matrix0.compute
   ========= Performance Analysis =============
   Setup Time:                      3.800717seconds
   Simulation Time:                 57.393491seconds
   System Clock:                    1.000000GHz
   Transistor Latency:              1ns
   Runtime:                         16392 cycles
   Runtime:                         16.392000 us
   Stalls:                          0 cycles
   Executed Nodes:                  16391 cycles

********************************************************************************
   ========= Performance Analysis =================
   Setup Time:                      3800716505.000000ns
   Simulation Time:                 57393490732.000000ns
   System Clock:                    1.000000GHz
   Transistor Latency:              0ns
   Runtime:                         16392 cycles
   Runtime:                         0.000002 seconds
   Stalls:                          0 cycles
       Load Only:                   0 cycles
       Store Only:                  0 cycles
       Compute Only:                0 cycles
       Compute & Store:             0 cycles
       Load & Store:                0 cycles
       Load & Compute:              0 cycles
       Load & Compute & Store:      0 cycles
   Executed Nodes:                  16391 cycles
       Load Only:                   0 cycles
       Store Only:                  4 cycles
       Compute Only:                1 cycles
       Compute & Store:             32 cycles
       Load & Store:                0 cycles
       Load & Compute:              6 cycles
       Load & Compute & Store:      16348 cycles

   ========= Runtime FU's ========= (Max | Avg) ===
   Counter FU's:                      32 | 0.031237
   Integer Add/Sub FU's:               0 | 0.000000
   Integer Mul/Div FU's:               0 | 0.000000
   Integer Shifter FU's:               0 | 0.000000
   Integer Bitwise FU's:               1 | 0.000061
   Floating Point Float Add/Sub:       0 | 0.000000
   Floating Point Double Add/Sub:      0 | 0.000000
   Floating Point Float Mul/Div:       1 | 0.999512
   Floating Point Double Mul/Div:      0 | 0.000000
   0 Cycle Compare FU's:             101 | 0.031657
   GEP Instruction FU's:              96 | 0.031235
   Type Conversion FU's:               7 | 0.004523

   ========= Static FU's ==========================
   Counter FU's:                    0
   Integer Add/Sub FU's:            0
   Integer Mul/Div FU's:            0
   Integer Shifter FU's:            0
   Integer Bitwise FU's:            0
   Floating Point Float Add/Sub:    0
   Floating Point Double Add/Sub:   0
   Floating Point Float Mul/Div:    0
   Floating Point Double Mul/Div:   0
   0 Cycle Compare FU's:            0
   GEP Instruction FU's:            0
   Type Conversion FU's:            0
   Other:                           0

   ========= Pipeline Register Usage =============
   Total Number of Registers:       5641
   Max Register Usage Per Cycle:    135
   Avg Register Usage Per Cycle:    8.090288
   Avg Register Size (Bytes):       5.980606

   ========= Memory Configuration =================
   Cache Bus Ports:                 0
   Shared Cache Size:               0kB
   Local Bus Ports:                 0
   Private SPM Size:                256kB
   Private Read Ports:              0
   Private Write Ports:             0
   Private Read Bus Width:          64
   Private Write Bus Width:         64
       Memory Reads:                0
       Memory Writes:               0
   ========= Power Analysis ======================
   FU Leakage Power:                0.045377 mW 
   FU Dynamic Power:                0.293182 mW 
   FU Total Power:                  0.338559 mW 

   Registers Leakage Power:          0.003521 mW 
   Registers Dynamic Power:          0.015320 mW 
       Register Reads (Bits):        132616
       Register Writes (Bits):       133658
   Registers Total Power:            0.018841 mW

   SPM Leakage Power:               0.099590 mW
   SPM Read Dynamic Power:          2.519734 mW
   SPM Write Dynamic Power:         1.839340 mW
   SPM Total Power:                 4.458663 mW

   Cache Leakage Power:             0.000000 mW
   Cache Read Dynamic Power:        0.000000 mW
   Cache Write Dynamic Power:       0.000000 mW
   Cache Total Power:               0.000000 mW

   Accelerator Power:               0.357400 mW
   Accelerator Power (SPM):         4.816064 mW
   Accelerator Power (Cache):       0.357400 mW

   ========= Area Analysis =======================
   FU Area:                         5472.068359 um^2 (0.005472 mm^2)
   Register Area:                   286.180725 um^2 (0.000286 mm^2)
   SPM Area:                        1894.672457 um^2 (0.001895 mm^2)
   Cache Area:                      0.000000 um^2 (0.000000 mm^2)

   Accelerator Area:                5758.249023 um^2 (0.005758 mm^2)
   Accelerator Area (SPM):          7652.921481 um^2 (0.007653 mm^2)
   Accelerator Area (Cache):        5758.249023 um^2 (0.005758 mm^2)

   ========= SPM Resizing  =======================
   SPM Optimized Leakage Power:     0.003640 mW
   SPM Opt Area:                    97.220725 um^2

662470186500: system.acctest.elem_matrix2_dma: SRC:0x0000000024220020, DST:0x0000000086804870, LEN:65536
662482086500: system.acctest.elem_matrix2_dma: Transfer completed in 11.9 us
662501458500: system.acctest.elem_matrix2_dma: SRC:0x0000000024020020, DST:0x0000000024200020, LEN:65536
662511708500: system.acctest.elem_matrix2_dma: Transfer completed in 10.25 us
662518259500: system.acctest.elem_matrix2_dma: SRC:0x00000000854b47e8, DST:0x0000000024210020, LEN:65536
662541499500: system.acctest.elem_matrix2_dma: Transfer completed in 23.24 us
********************************************************************************
system.acctest.elem_matrix2.compute
   ========= Performance Analysis =============
   Setup Time:                      4.194475seconds
   Simulation Time:                 44.673505seconds
   System Clock:                    1.000000GHz
   Transistor Latency:              1ns
   Runtime:                         16392 cycles
   Runtime:                         16.392000 us
   Stalls:                          0 cycles
   Executed Nodes:                  16391 cycles

********************************************************************************
   ========= Performance Analysis =================
   Setup Time:                      4194474861.000000ns
   Simulation Time:                 44673505391.000000ns
   System Clock:                    1.000000GHz
   Transistor Latency:              0ns
   Runtime:                         16392 cycles
   Runtime:                         0.000002 seconds
   Stalls:                          0 cycles
       Load Only:                   0 cycles
       Store Only:                  0 cycles
       Compute Only:                0 cycles
       Compute & Store:             0 cycles
       Load & Store:                0 cycles
       Load & Compute:              0 cycles
       Load & Compute & Store:      0 cycles
   Executed Nodes:                  16391 cycles
       Load Only:                   0 cycles
       Store Only:                  4 cycles
       Compute Only:                1 cycles
       Compute & Store:             32 cycles
       Load & Store:                0 cycles
       Load & Compute:              6 cycles
       Load & Compute & Store:      16348 cycles

   ========= Runtime FU's ========= (Max | Avg) ===
   Counter FU's:                      32 | 0.031237
   Integer Add/Sub FU's:               0 | 0.000000
   Integer Mul/Div FU's:               0 | 0.000000
   Integer Shifter FU's:               0 | 0.000000
   Integer Bitwise FU's:               1 | 0.000061
   Floating Point Float Add/Sub:       0 | 0.000000
   Floating Point Double Add/Sub:      0 | 0.000000
   Floating Point Float Mul/Div:       1 | 0.999512
   Floating Point Double Mul/Div:      0 | 0.000000
   0 Cycle Compare FU's:             101 | 0.031657
   GEP Instruction FU's:              96 | 0.031235
   Type Conversion FU's:               7 | 0.004523

   ========= Static FU's ==========================
   Counter FU's:                    0
   Integer Add/Sub FU's:            0
   Integer Mul/Div FU's:            0
   Integer Shifter FU's:            0
   Integer Bitwise FU's:            0
   Floating Point Float Add/Sub:    0
   Floating Point Double Add/Sub:   0
   Floating Point Float Mul/Div:    0
   Floating Point Double Mul/Div:   0
   0 Cycle Compare FU's:            0
   GEP Instruction FU's:            0
   Type Conversion FU's:            0
   Other:                           0

   ========= Pipeline Register Usage =============
   Total Number of Registers:       5641
   Max Register Usage Per Cycle:    135
   Avg Register Usage Per Cycle:    8.090288
   Avg Register Size (Bytes):       5.980606

   ========= Memory Configuration =================
   Cache Bus Ports:                 0
   Shared Cache Size:               0kB
   Local Bus Ports:                 0
   Private SPM Size:                256kB
   Private Read Ports:              0
   Private Write Ports:             0
   Private Read Bus Width:          64
   Private Write Bus Width:         64
       Memory Reads:                0
       Memory Writes:               0
   ========= Power Analysis ======================
   FU Leakage Power:                0.045377 mW 
   FU Dynamic Power:                0.293182 mW 
   FU Total Power:                  0.338559 mW 

   Registers Leakage Power:          0.003521 mW 
   Registers Dynamic Power:          0.015320 mW 
       Register Reads (Bits):        132616
       Register Writes (Bits):       133658
   Registers Total Power:            0.018841 mW

   SPM Leakage Power:               0.099590 mW
   SPM Read Dynamic Power:          1.510371 mW
   SPM Write Dynamic Power:         1.004807 mW
   SPM Total Power:                 2.614768 mW

   Cache Leakage Power:             0.000000 mW
   Cache Read Dynamic Power:        0.000000 mW
   Cache Write Dynamic Power:       0.000000 mW
   Cache Total Power:               0.000000 mW

   Accelerator Power:               0.357400 mW
   Accelerator Power (SPM):         2.972168 mW
   Accelerator Power (Cache):       0.357400 mW

   ========= Area Analysis =======================
   FU Area:                         5472.068359 um^2 (0.005472 mm^2)
   Register Area:                   286.180725 um^2 (0.000286 mm^2)
   SPM Area:                        1894.672457 um^2 (0.001895 mm^2)
   Cache Area:                      0.000000 um^2 (0.000000 mm^2)

   Accelerator Area:                5758.249023 um^2 (0.005758 mm^2)
   Accelerator Area (SPM):          7652.921481 um^2 (0.007653 mm^2)
   Accelerator Area (Cache):        5758.249023 um^2 (0.005758 mm^2)

   ========= SPM Resizing  =======================
   SPM Optimized Leakage Power:     0.003640 mW
   SPM Opt Area:                    97.220725 um^2

662569104500: system.acctest.elem_matrix3_dma: SRC:0x0000000024320020, DST:0x00000000871848b0, LEN:65536
662580954500: system.acctest.elem_matrix3_dma: Transfer completed in 11.85 us
662600492500: system.acctest.elem_matrix3_dma: SRC:0x0000000024120020, DST:0x0000000024300020, LEN:65536
662610742500: system.acctest.elem_matrix3_dma: Transfer completed in 10.25 us
662617205500: system.acctest.elem_matrix3_dma: SRC:0x00000000854747e8, DST:0x0000000024310020, LEN:65536
662640355500: system.acctest.elem_matrix3_dma: Transfer completed in 23.15 us
********************************************************************************
system.acctest.elem_matrix3.compute
   ========= Performance Analysis =============
   Setup Time:                      4.182119seconds
   Simulation Time:                 37.901884seconds
   System Clock:                    1.000000GHz
   Transistor Latency:              1ns
   Runtime:                         16392 cycles
   Runtime:                         16.392000 us
   Stalls:                          0 cycles
   Executed Nodes:                  16391 cycles

********************************************************************************
   ========= Performance Analysis =================
   Setup Time:                      4182118751.000000ns
   Simulation Time:                 37901884003.000000ns
   System Clock:                    1.000000GHz
   Transistor Latency:              0ns
   Runtime:                         16392 cycles
   Runtime:                         0.000002 seconds
   Stalls:                          0 cycles
       Load Only:                   0 cycles
       Store Only:                  0 cycles
       Compute Only:                0 cycles
       Compute & Store:             0 cycles
       Load & Store:                0 cycles
       Load & Compute:              0 cycles
       Load & Compute & Store:      0 cycles
   Executed Nodes:                  16391 cycles
       Load Only:                   0 cycles
       Store Only:                  4 cycles
       Compute Only:                1 cycles
       Compute & Store:             32 cycles
       Load & Store:                0 cycles
       Load & Compute:              6 cycles
       Load & Compute & Store:      16348 cycles

   ========= Runtime FU's ========= (Max | Avg) ===
   Counter FU's:                      32 | 0.031237
   Integer Add/Sub FU's:               0 | 0.000000
   Integer Mul/Div FU's:               0 | 0.000000
   Integer Shifter FU's:               0 | 0.000000
   Integer Bitwise FU's:               1 | 0.000061
   Floating Point Float Add/Sub:       0 | 0.000000
   Floating Point Double Add/Sub:      0 | 0.000000
   Floating Point Float Mul/Div:       1 | 0.999512
   Floating Point Double Mul/Div:      0 | 0.000000
   0 Cycle Compare FU's:             101 | 0.031657
   GEP Instruction FU's:              96 | 0.031235
   Type Conversion FU's:               7 | 0.004523

   ========= Static FU's ==========================
   Counter FU's:                    0
   Integer Add/Sub FU's:            0
   Integer Mul/Div FU's:            0
   Integer Shifter FU's:            0
   Integer Bitwise FU's:            0
   Floating Point Float Add/Sub:    0
   Floating Point Double Add/Sub:   0
   Floating Point Float Mul/Div:    0
   Floating Point Double Mul/Div:   0
   0 Cycle Compare FU's:            0
   GEP Instruction FU's:            0
   Type Conversion FU's:            0
   Other:                           0

   ========= Pipeline Register Usage =============
   Total Number of Registers:       5641
   Max Register Usage Per Cycle:    135
   Avg Register Usage Per Cycle:    8.090288
   Avg Register Size (Bytes):       5.980606

   ========= Memory Configuration =================
   Cache Bus Ports:                 0
   Shared Cache Size:               0kB
   Local Bus Ports:                 0
   Private SPM Size:                256kB
   Private Read Ports:              0
   Private Write Ports:             0
   Private Read Bus Width:          64
   Private Write Bus Width:         64
       Memory Reads:                0
       Memory Writes:               0
   ========= Power Analysis ======================
   FU Leakage Power:                0.045377 mW 
   FU Dynamic Power:                0.293182 mW 
   FU Total Power:                  0.338559 mW 

   Registers Leakage Power:          0.003521 mW 
   Registers Dynamic Power:          0.015320 mW 
       Register Reads (Bits):        132616
       Register Writes (Bits):       133658
   Registers Total Power:            0.018841 mW

   SPM Leakage Power:               0.099590 mW
   SPM Read Dynamic Power:          1.510371 mW
   SPM Write Dynamic Power:         1.004807 mW
   SPM Total Power:                 2.614768 mW

   Cache Leakage Power:             0.000000 mW
   Cache Read Dynamic Power:        0.000000 mW
   Cache Write Dynamic Power:       0.000000 mW
   Cache Total Power:               0.000000 mW

   Accelerator Power:               0.357400 mW
   Accelerator Power (SPM):         2.972168 mW
   Accelerator Power (Cache):       0.357400 mW

   ========= Area Analysis =======================
   FU Area:                         5472.068359 um^2 (0.005472 mm^2)
   Register Area:                   286.180725 um^2 (0.000286 mm^2)
   SPM Area:                        1894.672457 um^2 (0.001895 mm^2)
   Cache Area:                      0.000000 um^2 (0.000000 mm^2)

   Accelerator Area:                5758.249023 um^2 (0.005758 mm^2)
   Accelerator Area (SPM):          7652.921481 um^2 (0.007653 mm^2)
   Accelerator Area (Cache):        5758.249023 um^2 (0.005758 mm^2)

   ========= SPM Resizing  =======================
   SPM Optimized Leakage Power:     0.003640 mW
   SPM Opt Area:                    97.220725 um^2

662677081500: system.acctest.elem_matrix2_dma: SRC:0x00000000854c47e8, DST:0x0000000024200020, LEN:65536
662700061500: system.acctest.elem_matrix2_dma: Transfer completed in 22.98 us
********************************************************************************
system.acctest.elem_matrix2.compute
   ========= Performance Analysis =============
   Setup Time:                      4.087624seconds
   Simulation Time:                 37.210106seconds
   System Clock:                    1.000000GHz
   Transistor Latency:              1ns
   Runtime:                         16394 cycles
   Runtime:                         16.394000 us
   Stalls:                          1 cycles
   Executed Nodes:                  16392 cycles

********************************************************************************
   ========= Performance Analysis =================
   Setup Time:                      4087624370.000000ns
   Simulation Time:                 37210106073.000000ns
   System Clock:                    1.000000GHz
[...]
   GEP Instruction FU's:               4 | 0.132683
   Type Conversion FU's:               7 | 0.186618

   ========= Static FU's ==========================
   Counter FU's:                    0
   Integer Add/Sub FU's:            0
   Integer Mul/Div FU's:            0
   Integer Shifter FU's:            0
   Integer Bitwise FU's:            0
   Floating Point Float Add/Sub:    0
   Floating Point Double Add/Sub:   0
   Floating Point Float Mul/Div:    0
   Floating Point Double Mul/Div:   0
   0 Cycle Compare FU's:            0
   GEP Instruction FU's:            0
   Type Conversion FU's:            0
   Other:                           0

   ========= Pipeline Register Usage =============
   Total Number of Registers:       1702
   Max Register Usage Per Cycle:    21
   Avg Register Usage Per Cycle:    6.348199
   Avg Register Size (Bytes):       5.569148

   ========= Memory Configuration =================
   Cache Bus Ports:                 0
   Shared Cache Size:               0kB
   Local Bus Ports:                 0
   Private SPM Size:                192kB
   Private Read Ports:              0
   Private Write Ports:             0
   Private Read Bus Width:          64
   Private Write Bus Width:         64
       Memory Reads:                0
       Memory Writes:               0
   ========= Power Analysis ======================
   FU Leakage Power:                0.196912 mW 
   FU Dynamic Power:                2743.543213 mW 
   FU Total Power:                  2743.740234 mW 

   Registers Leakage Power:          0.002459 mW 
   Registers Dynamic Power:          75.251152 mW 
       Register Reads (Bits):        9811808
       Register Writes (Bits):       10049727
   Registers Total Power:            75.253609 mW

   SPM Leakage Power:               0.068560 mW
   SPM Read Dynamic Power:          27.043978 mW
   SPM Write Dynamic Power:         4.537772 mW
   SPM Total Power:                 31.650310 mW

   Cache Leakage Power:             0.000000 mW
   Cache Read Dynamic Power:        0.000000 mW
   Cache Write Dynamic Power:       0.000000 mW
   Cache Total Power:               0.000000 mW

   Accelerator Power:               2818.993896 mW
   Accelerator Power (SPM):         2850.644207 mW
   Accelerator Power (Cache):       2818.993896 mW

   ========= Area Analysis =======================
   FU Area:                         22931.867188 um^2 (0.022932 mm^2)
   Register Area:                   199.868912 um^2 (0.000200 mm^2)
   SPM Area:                        1013.937795 um^2 (0.001014 mm^2)
   Cache Area:                      0.000000 um^2 (0.000000 mm^2)

   Accelerator Area:                23131.736328 um^2 (0.023132 mm^2)
   Accelerator Area (SPM):          24145.674123 um^2 (0.024146 mm^2)
   Accelerator Area (Cache):        23131.736328 um^2 (0.023132 mm^2)

   ========= SPM Resizing  =======================
   SPM Optimized Leakage Power:     0.001770 mW
   SPM Opt Area:                    77.453784 um^2

732158331500: system.acctest.elem_matrix1_dma: SRC:0x0000000085442a20, DST:0x0000000024100020, LEN:65536
732173671500: system.acctest.elem_matrix1_dma: Transfer completed in 15.34 us
732180119500: system.acctest.elem_matrix1_dma: SRC:0x0000000022120020, DST:0x0000000024110020, LEN:65536
732190369500: system.acctest.elem_matrix1_dma: Transfer completed in 10.25 us
********************************************************************************
system.acctest.elem_matrix1.compute
   ========= Performance Analysis =============
   Setup Time:                      2.221989seconds
   Simulation Time:                 36.382985seconds
   System Clock:                    1.000000GHz
   Transistor Latency:              1ns
   Runtime:                         16392 cycles
   Runtime:                         16.392000 us
   Stalls:                          0 cycles
   Executed Nodes:                  16391 cycles

********************************************************************************
   ========= Performance Analysis =================
   Setup Time:                      2221989156.000000ns
   Simulation Time:                 36382985368.000000ns
   System Clock:                    1.000000GHz
   Transistor Latency:              0ns
   Runtime:                         16392 cycles
   Runtime:                         0.000002 seconds
   Stalls:                          0 cycles
       Load Only:                   0 cycles
       Store Only:                  0 cycles
       Compute Only:                0 cycles
       Compute & Store:             0 cycles
       Load & Store:                0 cycles
       Load & Compute:              0 cycles
       Load & Compute & Store:      0 cycles
   Executed Nodes:                  16391 cycles
       Load Only:                   0 cycles
       Store Only:                  4 cycles
       Compute Only:                1 cycles
       Compute & Store:             32 cycles
       Load & Store:                0 cycles
       Load & Compute:              6 cycles
       Load & Compute & Store:      16348 cycles

   ========= Runtime FU's ========= (Max | Avg) ===
   Counter FU's:                      32 | 0.031237
   Integer Add/Sub FU's:               0 | 0.000000
   Integer Mul/Div FU's:               0 | 0.000000
   Integer Shifter FU's:               0 | 0.000000
   Integer Bitwise FU's:               1 | 0.000061
   Floating Point Float Add/Sub:       0 | 0.000000
   Floating Point Double Add/Sub:      0 | 0.000000
   Floating Point Float Mul/Div:       1 | 0.999512
   Floating Point Double Mul/Div:      0 | 0.000000
   0 Cycle Compare FU's:             101 | 0.031657
   GEP Instruction FU's:              96 | 0.031235
   Type Conversion FU's:               7 | 0.004523

   ========= Static FU's ==========================
   Counter FU's:                    0
   Integer Add/Sub FU's:            0
   Integer Mul/Div FU's:            0
   Integer Shifter FU's:            0
   Integer Bitwise FU's:            0
   Floating Point Float Add/Sub:    0
   Floating Point Double Add/Sub:   0
   Floating Point Float Mul/Div:    0
   Floating Point Double Mul/Div:   0
   0 Cycle Compare FU's:            0
   GEP Instruction FU's:            0
   Type Conversion FU's:            0
   Other:                           0

   ========= Pipeline Register Usage =============
   Total Number of Registers:       5641
   Max Register Usage Per Cycle:    135
   Avg Register Usage Per Cycle:    8.090288
   Avg Register Size (Bytes):       5.980606

   ========= Memory Configuration =================
   Cache Bus Ports:                 0
   Shared Cache Size:               0kB
   Local Bus Ports:                 0
   Private SPM Size:                256kB
   Private Read Ports:              0
   Private Write Ports:             0
   Private Read Bus Width:          64
   Private Write Bus Width:         64
       Memory Reads:                0
       Memory Writes:               0
   ========= Power Analysis ======================
   FU Leakage Power:                0.045377 mW 
   FU Dynamic Power:                0.293182 mW 
   FU Total Power:                  0.338559 mW 

   Registers Leakage Power:          0.003521 mW 
   Registers Dynamic Power:          0.015320 mW 
       Register Reads (Bits):        132616
       Register Writes (Bits):       133658
   Registers Total Power:            0.018841 mW

   SPM Leakage Power:               0.099590 mW
   SPM Read Dynamic Power:          13.867637 mW
   SPM Write Dynamic Power:         10.809998 mW
   SPM Total Power:                 24.777225 mW

   Cache Leakage Power:             0.000000 mW
   Cache Read Dynamic Power:        0.000000 mW
   Cache Write Dynamic Power:       0.000000 mW
   Cache Total Power:               0.000000 mW

   Accelerator Power:               0.357400 mW
   Accelerator Power (SPM):         25.134625 mW
   Accelerator Power (Cache):       0.357400 mW

   ========= Area Analysis =======================
   FU Area:                         5472.068359 um^2 (0.005472 mm^2)
   Register Area:                   286.180725 um^2 (0.000286 mm^2)
   SPM Area:                        1894.672457 um^2 (0.001895 mm^2)
   Cache Area:                      0.000000 um^2 (0.000000 mm^2)

   Accelerator Area:                5758.249023 um^2 (0.005758 mm^2)
   Accelerator Area (SPM):          7652.921481 um^2 (0.007653 mm^2)
   Accelerator Area (Cache):        5758.249023 um^2 (0.005758 mm^2)

   ========= SPM Resizing  =======================
   SPM Optimized Leakage Power:     0.003640 mW
   SPM Opt Area:                    97.220725 um^2

732223345500: system.acctest.elem_matrix1_dma: SRC:0x0000000024120020, DST:0x0000000085442a20, LEN:65536
732235145500: system.acctest.elem_matrix1_dma: Transfer completed in 11.8 us
********************************************************************************
system.acctest.convolution0.compute
   ========= Performance Analysis =============
   Setup Time:                      0.200473seconds
   Simulation Time:                 311.032705seconds
   System Clock:                    1.000000GHz
   Transistor Latency:              1ns
   Runtime:                         1545605 cycles
   Runtime:                         1545.605000 us
   Stalls:                          0 cycles
   Executed Nodes:                  1545604 cycles

********************************************************************************
   ========= Performance Analysis =================
   Setup Time:                      200472531.000000ns
   Simulation Time:                 311032705304.000000ns
   System Clock:                    1.000000GHz
   Transistor Latency:              0ns
   Runtime:                         1545605 cycles
   Runtime:                         0.000155 seconds
   Stalls:                          0 cycles
       Load Only:                   0 cycles
       Store Only:                  0 cycles
       Compute Only:                0 cycles
       Compute & Store:             0 cycles
       Load & Store:                0 cycles
       Load & Compute:              0 cycles
       Load & Compute & Store:      0 cycles
   Executed Nodes:                  1545604 cycles
       Load Only:                   0 cycles
       Store Only:                  0 cycles
       Compute Only:                1127292 cycles
       Compute & Store:             16358 cycles
       Load & Store:                0 cycles
       Load & Compute:              401928 cycles
       Load & Compute & Store:      26 cycles

   ========= Runtime FU's ========= (Max | Avg) ===
   Counter FU's:                       3 | 0.112298
   Integer Add/Sub FU's:               4 | 0.211564
   Integer Mul/Div FU's:               1 | 0.052505
   Integer Shifter FU's:              10 | 0.005268
   Integer Bitwise FU's:               2 | 0.184266
   Floating Point Float Add/Sub:       5 | 0.208057
   Floating Point Double Add/Sub:      0 | 0.000000
   Floating Point Float Mul/Div:       5 | 0.052057
   Floating Point Double Mul/Div:      0 | 0.000000
   0 Cycle Compare FU's:              40 | 0.145946
   GEP Instruction FU's:               4 | 0.132683
   Type Conversion FU's:               7 | 0.186618

   ========= Static FU's ==========================
   Counter FU's:                    0
   Integer Add/Sub FU's:            0
   Integer Mul/Div FU's:            0
   Integer Shifter FU's:            0
   Integer Bitwise FU's:            0
   Floating Point Float Add/Sub:    0
   Floating Point Double Add/Sub:   0
   Floating Point Float Mul/Div:    0
   Floating Point Double Mul/Div:   0
   0 Cycle Compare FU's:            0
   GEP Instruction FU's:            0
   Type Conversion FU's:            0
   Other:                           0

   ========= Pipeline Register Usage =============
   Total Number of Registers:       1702
   Max Register Usage Per Cycle:    20
   Avg Register Usage Per Cycle:    6.348199
   Avg Register Size (Bytes):       5.569148

   ========= Memory Configuration =================
   Cache Bus Ports:                 0
   Shared Cache Size:               0kB
   Local Bus Ports:                 0
   Private SPM Size:                192kB
   Private Read Ports:              0
   Private Write Ports:             0
   Private Read Bus Width:          64
   Private Write Bus Width:         64
       Memory Reads:                0
       Memory Writes:               0
   ========= Power Analysis ======================
   FU Leakage Power:                0.196912 mW 
   FU Dynamic Power:                2743.529541 mW 
   FU Total Power:                  2743.726562 mW 

   Registers Leakage Power:          0.002459 mW 
   Registers Dynamic Power:          75.251152 mW 
       Register Reads (Bits):        9811808
       Register Writes (Bits):       10049727
   Registers Total Power:            75.253609 mW

   SPM Leakage Power:               0.068560 mW
   SPM Read Dynamic Power:          27.043978 mW
   SPM Write Dynamic Power:         4.537772 mW
   SPM Total Power:                 31.650310 mW

   Cache Leakage Power:             0.000000 mW
   Cache Read Dynamic Power:        0.000000 mW
   Cache Write Dynamic Power:       0.000000 mW
   Cache Total Power:               0.000000 mW

   Accelerator Power:               2818.980225 mW
   Accelerator Power (SPM):         2850.630535 mW
   Accelerator Power (Cache):       2818.980225 mW

   ========= Area Analysis =======================
   FU Area:                         22931.867188 um^2 (0.022932 mm^2)
   Register Area:                   199.868912 um^2 (0.000200 mm^2)
   SPM Area:                        1013.937795 um^2 (0.001014 mm^2)
   Cache Area:                      0.000000 um^2 (0.000000 mm^2)

   Accelerator Area:                23131.736328 um^2 (0.023132 mm^2)
   Accelerator Area (SPM):          24145.674123 um^2 (0.024146 mm^2)
   Accelerator Area (Cache):        23131.736328 um^2 (0.023132 mm^2)

   ========= SPM Resizing  =======================
   SPM Optimized Leakage Power:     0.001770 mW
   SPM Opt Area:                    77.453784 um^2

732688328500: system.acctest.elem_matrix0_dma: SRC:0x00000000853e0c58, DST:0x0000000024000020, LEN:65536
732711568500: system.acctest.elem_matrix0_dma: Transfer completed in 23.24 us
732718127500: system.acctest.elem_matrix0_dma: SRC:0x0000000022020020, DST:0x0000000024010020, LEN:65536
732728377500: system.acctest.elem_matrix0_dma: Transfer completed in 10.25 us
********************************************************************************
system.acctest.elem_matrix0.compute
   ========= Performance Analysis =============
   Setup Time:                      3.421610seconds
   Simulation Time:                 34.714468seconds
   System Clock:                    1.000000GHz
   Transistor Latency:              1ns
   Runtime:                         16392 cycles
   Runtime:                         16.392000 us
   Stalls:                          0 cycles
   Executed Nodes:                  16391 cycles

********************************************************************************
   ========= Performance Analysis =================
   Setup Time:                      3421610312.000000ns
   Simulation Time:                 34714467724.000000ns
   System Clock:                    1.000000GHz
   Transistor Latency:              0ns
   Runtime:                         16392 cycles
   Runtime:                         0.000002 seconds
   Stalls:                          0 cycles
       Load Only:                   0 cycles
       Store Only:                  0 cycles
       Compute Only:                0 cycles
       Compute & Store:             0 cycles
       Load & Store:                0 cycles
       Load & Compute:              0 cycles
       Load & Compute & Store:      0 cycles
   Executed Nodes:                  16391 cycles
       Load Only:                   0 cycles
       Store Only:                  4 cycles
       Compute Only:                1 cycles
       Compute & Store:             32 cycles
       Load & Store:                0 cycles
       Load & Compute:              6 cycles
       Load & Compute & Store:      16348 cycles

   ========= Runtime FU's ========= (Max | Avg) ===
   Counter FU's:                      32 | 0.031237
   Integer Add/Sub FU's:               0 | 0.000000
   Integer Mul/Div FU's:               0 | 0.000000
   Integer Shifter FU's:               0 | 0.000000
   Integer Bitwise FU's:               1 | 0.000061
   Floating Point Float Add/Sub:       0 | 0.000000
   Floating Point Double Add/Sub:      0 | 0.000000
   Floating Point Float Mul/Div:       1 | 0.999512
   Floating Point Double Mul/Div:      0 | 0.000000
   0 Cycle Compare FU's:             101 | 0.031657
   GEP Instruction FU's:              96 | 0.031235
   Type Conversion FU's:               7 | 0.004523

   ========= Static FU's ==========================
   Counter FU's:                    0
   Integer Add/Sub FU's:            0
   Integer Mul/Div FU's:            0
   Integer Shifter FU's:            0
   Integer Bitwise FU's:            0
   Floating Point Float Add/Sub:    0
   Floating Point Double Add/Sub:   0
   Floating Point Float Mul/Div:    0
   Floating Point Double Mul/Div:   0
   0 Cycle Compare FU's:            0
   GEP Instruction FU's:            0
   Type Conversion FU's:            0
   Other:                           0

   ========= Pipeline Register Usage =============
   Total Number of Registers:       5641
   Max Register Usage Per Cycle:    135
   Avg Register Usage Per Cycle:    8.090288
   Avg Register Size (Bytes):       5.980606

   ========= Memory Configuration =================
   Cache Bus Ports:                 0
   Shared Cache Size:               0kB
   Local Bus Ports:                 0
   Private SPM Size:                256kB
   Private Read Ports:              0
   Private Write Ports:             0
   Private Read Bus Width:          64
   Private Write Bus Width:         64
       Memory Reads:                0
       Memory Writes:               0
   ========= Power Analysis ======================
   FU Leakage Power:                0.045377 mW 
   FU Dynamic Power:                0.293182 mW 
   FU Total Power:                  0.338559 mW 

   Registers Leakage Power:          0.003521 mW 
   Registers Dynamic Power:          0.015320 mW 
       Register Reads (Bits):        132616
       Register Writes (Bits):       133658
   Registers Total Power:            0.018841 mW

   SPM Leakage Power:               0.099590 mW
   SPM Read Dynamic Power:          13.946613 mW
   SPM Write Dynamic Power:         10.982593 mW
   SPM Total Power:                 25.028795 mW

   Cache Leakage Power:             0.000000 mW
   Cache Read Dynamic Power:        0.000000 mW
   Cache Write Dynamic Power:       0.000000 mW
   Cache Total Power:               0.000000 mW

   Accelerator Power:               0.357400 mW
   Accelerator Power (SPM):         25.386195 mW
   Accelerator Power (Cache):       0.357400 mW

   ========= Area Analysis =======================
   FU Area:                         5472.068359 um^2 (0.005472 mm^2)
   Register Area:                   286.180725 um^2 (0.000286 mm^2)
   SPM Area:                        1894.672457 um^2 (0.001895 mm^2)
   Cache Area:                      0.000000 um^2 (0.000000 mm^2)

   Accelerator Area:                5758.249023 um^2 (0.005758 mm^2)
   Accelerator Area (SPM):          7652.921481 um^2 (0.007653 mm^2)
   Accelerator Area (Cache):        5758.249023 um^2 (0.005758 mm^2)

   ========= SPM Resizing  =======================
   SPM Optimized Leakage Power:     0.003640 mW
   SPM Opt Area:                    97.220725 um^2

732761952500: system.acctest.elem_matrix0_dma: SRC:0x0000000024020020, DST:0x00000000853e0c58, LEN:65536
732773762500: system.acctest.elem_matrix0_dma: Transfer completed in 11.81 us
Exiting @ tick 732786288500 because m5_exit instruction encountered
