
---------- Begin Simulation Statistics ----------
final_tick                                51349187500                       # Number of ticks from beginning of simulation (restored from checkpoints and never reset)
host_inst_rate                                    118                       # Simulator instruction rate (inst/s)
host_mem_usage                               10826412                       # Number of bytes of host memory used
host_op_rate                                      122                       # Simulator op (including micro ops) rate (op/s)
host_seconds                                 19089.05                       # Real time elapsed on the host
host_tick_rate                                2668434                       # Simulator tick rate (ticks/s)
sim_freq                                 1000000000000                       # Frequency of simulated ticks
sim_insts                                     2254259                       # Number of instructions simulated
sim_ops                                       2330305                       # Number of ops (including micro ops) simulated
sim_seconds                                  0.050938                       # Number of seconds simulated
sim_ticks                                 50937870000                       # Number of ticks simulated
system.acctest.coherency_bus.snoop_filter.hit_multi_requests            0                       # Number of requests hitting in the snoop filter with multiple (>1) holders of the requested data.
system.acctest.coherency_bus.snoop_filter.hit_multi_snoops            0                       # Number of snoops hitting in the snoop filter with multiple (>1) holders of the requested data.
system.acctest.coherency_bus.snoop_filter.hit_single_requests            0                       # Number of requests hitting in the snoop filter with a single holder of the requested data.
system.acctest.coherency_bus.snoop_filter.hit_single_snoops            0                       # Number of snoops hitting in the snoop filter with a single holder of the requested data.
system.acctest.coherency_bus.snoop_filter.tot_requests            0                       # Total number of requests made to the snoop filter.
system.acctest.coherency_bus.snoop_filter.tot_snoops            0                       # Total number of snoops made to the snoop filter.
system.cf0.dma_read_bytes                           0                       # Number of bytes transfered via DMA reads (not PRD).
system.cf0.dma_read_full_pages                      0                       # Number of full page size DMA reads (not PRD).
system.cf0.dma_read_txs                             0                       # Number of DMA read transactions (not PRD).
system.cf0.dma_write_bytes                          0                       # Number of bytes transfered via DMA writes.
system.cf0.dma_write_full_pages                     0                       # Number of full page size DMA writes.
system.cf0.dma_write_txs                            0                       # Number of DMA write transactions.
system.cpu.branchPred.BTBCorrect                    0                       # Number of correct BTB predictions (this stat may not work properly.
system.cpu.branchPred.BTBHitPct             97.517407                       # BTB Hit Percentage
system.cpu.branchPred.BTBHits                  236272                       # Number of BTB hits
system.cpu.branchPred.BTBLookups               242287                       # Number of BTB lookups
system.cpu.branchPred.RASInCorrect                  0                       # Number of incorrect RAS predictions.
system.cpu.branchPred.condIncorrect              2415                       # Number of conditional branches incorrect
system.cpu.branchPred.condPredicted            521369                       # Number of conditional branches predicted
system.cpu.branchPred.indirectHits                309                       # Number of indirect target hits.
system.cpu.branchPred.indirectLookups             540                       # Number of indirect predictor lookups.
system.cpu.branchPred.indirectMisses              231                       # Number of indirect misses.
system.cpu.branchPred.lookups                  539377                       # Number of BP lookups
system.cpu.branchPred.usedRAS                    1451                       # Number of times the RAS was used to get a target.
system.cpu.branchPredindirectMispredicted           96                       # Number of mispredicted indirect branches.
system.cpu.cc_regfile_reads                  18165984                       # number of cc regfile reads
system.cpu.cc_regfile_writes                  1315895                       # number of cc regfile writes
system.cpu.commit.amos                              0                       # Number of atomic instructions committed
system.cpu.commit.branchMispredicts              2362                       # The number of times a branch was mispredicted
system.cpu.commit.branches                     504833                       # Number of branches committed
system.cpu.commit.bw_lim_events                 13423                       # number cycles where commit BW limit reached
system.cpu.commit.commitNonSpecStalls               1                       # The number of times commit has been forced to stall to communicate backwards
system.cpu.commit.commitSquashedInsts          108713                       # The number of squashed insts skipped by commit
system.cpu.commit.committedInsts              2043177                       # Number of instructions committed
system.cpu.commit.committedOps                2052993                       # Number of ops (including micro ops) committed
system.cpu.commit.committed_per_cycle::samples     67624647                       # Number of insts commited each cycle
system.cpu.commit.committed_per_cycle::mean     0.030359                       # Number of insts commited each cycle
system.cpu.commit.committed_per_cycle::stdev     0.293008                       # Number of insts commited each cycle
system.cpu.commit.committed_per_cycle::underflows            0      0.00%      0.00% # Number of insts commited each cycle
system.cpu.commit.committed_per_cycle::0     66370223     98.15%     98.15% # Number of insts commited each cycle
system.cpu.commit.committed_per_cycle::1       909307      1.34%     99.49% # Number of insts commited each cycle
system.cpu.commit.committed_per_cycle::2       188846      0.28%     99.77% # Number of insts commited each cycle
system.cpu.commit.committed_per_cycle::3        62381      0.09%     99.86% # Number of insts commited each cycle
system.cpu.commit.committed_per_cycle::4         4899      0.01%     99.87% # Number of insts commited each cycle
system.cpu.commit.committed_per_cycle::5         2048      0.00%     99.87% # Number of insts commited each cycle
system.cpu.commit.committed_per_cycle::6        73009      0.11%     99.98% # Number of insts commited each cycle
system.cpu.commit.committed_per_cycle::7          511      0.00%     99.98% # Number of insts commited each cycle
system.cpu.commit.committed_per_cycle::8        13423      0.02%    100.00% # Number of insts commited each cycle
system.cpu.commit.committed_per_cycle::overflows            0      0.00%    100.00% # Number of insts commited each cycle
system.cpu.commit.committed_per_cycle::min_value            0                       # Number of insts commited each cycle
system.cpu.commit.committed_per_cycle::max_value            8                       # Number of insts commited each cycle
system.cpu.commit.committed_per_cycle::total     67624647                       # Number of insts commited each cycle
system.cpu.commit.fp_insts                          0                       # Number of committed floating point instructions.
system.cpu.commit.function_calls                  917                       # Number of function calls committed.
system.cpu.commit.int_insts                   1550307                       # Number of committed integer instructions.
system.cpu.commit.loads                        445413                       # Number of loads committed
system.cpu.commit.membars                           0                       # Number of memory barriers committed
system.cpu.commit.op_class_0::No_OpClass            0      0.00%      0.00% # Class of committed instruction
system.cpu.commit.op_class_0::IntAlu          1574576     76.70%     76.70% # Class of committed instruction
system.cpu.commit.op_class_0::IntMult             385      0.02%     76.72% # Class of committed instruction
system.cpu.commit.op_class_0::IntDiv                0      0.00%     76.72% # Class of committed instruction
system.cpu.commit.op_class_0::FloatAdd              0      0.00%     76.72% # Class of committed instruction
system.cpu.commit.op_class_0::FloatCmp              0      0.00%     76.72% # Class of committed instruction
system.cpu.commit.op_class_0::FloatCvt              0      0.00%     76.72% # Class of committed instruction
system.cpu.commit.op_class_0::FloatMult             0      0.00%     76.72% # Class of committed instruction
system.cpu.commit.op_class_0::FloatMultAcc            0      0.00%     76.72% # Class of committed instruction
system.cpu.commit.op_class_0::FloatDiv              0      0.00%     76.72% # Class of committed instruction
system.cpu.commit.op_class_0::FloatMisc             0      0.00%     76.72% # Class of committed instruction
system.cpu.commit.op_class_0::FloatSqrt             0      0.00%     76.72% # Class of committed instruction
system.cpu.commit.op_class_0::SimdAdd               0      0.00%     76.72% # Class of committed instruction
system.cpu.commit.op_class_0::SimdAddAcc            0      0.00%     76.72% # Class of committed instruction
system.cpu.commit.op_class_0::SimdAlu               0      0.00%     76.72% # Class of committed instruction
system.cpu.commit.op_class_0::SimdCmp               0      0.00%     76.72% # Class of committed instruction
system.cpu.commit.op_class_0::SimdCvt               0      0.00%     76.72% # Class of committed instruction
system.cpu.commit.op_class_0::SimdMisc              0      0.00%     76.72% # Class of committed instruction
system.cpu.commit.op_class_0::SimdMult              0      0.00%     76.72% # Class of committed instruction
system.cpu.commit.op_class_0::SimdMultAcc            0      0.00%     76.72% # Class of committed instruction
system.cpu.commit.op_class_0::SimdShift             0      0.00%     76.72% # Class of committed instruction
system.cpu.commit.op_class_0::SimdShiftAcc            0      0.00%     76.72% # Class of committed instruction
system.cpu.commit.op_class_0::SimdDiv               0      0.00%     76.72% # Class of committed instruction
system.cpu.commit.op_class_0::SimdSqrt              0      0.00%     76.72% # Class of committed instruction
system.cpu.commit.op_class_0::SimdFloatAdd            0      0.00%     76.72% # Class of committed instruction
system.cpu.commit.op_class_0::SimdFloatAlu            0      0.00%     76.72% # Class of committed instruction
system.cpu.commit.op_class_0::SimdFloatCmp            0      0.00%     76.72% # Class of committed instruction
system.cpu.commit.op_class_0::SimdFloatCvt            0      0.00%     76.72% # Class of committed instruction
system.cpu.commit.op_class_0::SimdFloatDiv            0      0.00%     76.72% # Class of committed instruction
system.cpu.commit.op_class_0::SimdFloatMisc            0      0.00%     76.72% # Class of committed instruction
system.cpu.commit.op_class_0::SimdFloatMult            0      0.00%     76.72% # Class of committed instruction
system.cpu.commit.op_class_0::SimdFloatMultAcc            0      0.00%     76.72% # Class of committed instruction
system.cpu.commit.op_class_0::SimdFloatSqrt            0      0.00%     76.72% # Class of committed instruction
system.cpu.commit.op_class_0::SimdReduceAdd            0      0.00%     76.72% # Class of committed instruction
system.cpu.commit.op_class_0::SimdReduceAlu            0      0.00%     76.72% # Class of committed instruction
system.cpu.commit.op_class_0::SimdReduceCmp            0      0.00%     76.72% # Class of committed instruction
system.cpu.commit.op_class_0::SimdFloatReduceAdd            0      0.00%     76.72% # Class of committed instruction
system.cpu.commit.op_class_0::SimdFloatReduceCmp            0      0.00%     76.72% # Class of committed instruction
system.cpu.commit.op_class_0::SimdAes               0      0.00%     76.72% # Class of committed instruction
system.cpu.commit.op_class_0::SimdAesMix            0      0.00%     76.72% # Class of committed instruction
system.cpu.commit.op_class_0::SimdSha1Hash            0      0.00%     76.72% # Class of committed instruction
system.cpu.commit.op_class_0::SimdSha1Hash2            0      0.00%     76.72% # Class of committed instruction
system.cpu.commit.op_class_0::SimdSha256Hash            0      0.00%     76.72% # Class of committed instruction
system.cpu.commit.op_class_0::SimdSha256Hash2            0      0.00%     76.72% # Class of committed instruction
system.cpu.commit.op_class_0::SimdShaSigma2            0      0.00%     76.72% # Class of committed instruction
system.cpu.commit.op_class_0::SimdShaSigma3            0      0.00%     76.72% # Class of committed instruction
system.cpu.commit.op_class_0::SimdPredAlu            0      0.00%     76.72% # Class of committed instruction
system.cpu.commit.op_class_0::MemRead          445413     21.70%     98.41% # Class of committed instruction
system.cpu.commit.op_class_0::MemWrite          32619      1.59%    100.00% # Class of committed instruction
system.cpu.commit.op_class_0::FloatMemRead            0      0.00%    100.00% # Class of committed instruction
system.cpu.commit.op_class_0::FloatMemWrite            0      0.00%    100.00% # Class of committed instruction
system.cpu.commit.op_class_0::IprAccess             0      0.00%    100.00% # Class of committed instruction
system.cpu.commit.op_class_0::InstPrefetch            0      0.00%    100.00% # Class of committed instruction
system.cpu.commit.op_class_0::total           2052993                       # Class of committed instruction
system.cpu.commit.refs                         478032                       # Number of memory references committed
system.cpu.commit.swp_count                         0                       # Number of s/w prefetches committed
system.cpu.commit.vec_insts                         0                       # Number of committed Vector instructions.
system.cpu.committedInsts                     2043177                       # Number of Instructions Simulated
system.cpu.committedOps                       2052993                       # Number of Ops (including micro ops) Simulated
system.cpu.cpi                              49.861436                       # CPI: Cycles Per Instruction
system.cpu.cpi_total                        49.861436                       # CPI: Total CPI of All Threads
system.cpu.decode.BlockedCycles              66400623                       # Number of cycles decode is blocked
system.cpu.decode.BranchMispred                    54                       # Number of times decode detected a branch misprediction
system.cpu.decode.BranchResolved               229064                       # Number of times decode resolved a branch
system.cpu.decode.DecodedInsts                2173438                       # Number of instructions handled by decode
system.cpu.decode.IdleCycles                   954763                       # Number of cycles decode is idle
system.cpu.decode.RunCycles                     44519                       # Number of cycles decode is running
system.cpu.decode.SquashCycles                   2362                       # Number of cycles decode is squashing
system.cpu.decode.SquashedInsts                   130                       # Number of squashed instructions handled by decode
system.cpu.decode.UnblockCycles                237422                       # Number of cycles decode is unblocking
system.cpu.dtb.accesses                             0                       # DTB accesses
system.cpu.dtb.align_faults                         0                       # Number of TLB faults due to alignment restrictions
system.cpu.dtb.domain_faults                        0                       # Number of TLB faults due to domain restrictions
system.cpu.dtb.flush_entries                        0                       # Number of entries that have been flushed from TLB
system.cpu.dtb.flush_tlb                            0                       # Number of times complete TLB was flushed
system.cpu.dtb.flush_tlb_asid                       0                       # Number of times TLB was flushed by ASID
system.cpu.dtb.flush_tlb_mva                        0                       # Number of times TLB was flushed by MVA
system.cpu.dtb.flush_tlb_mva_asid                   0                       # Number of times TLB was flushed by MVA & ASID
system.cpu.dtb.hits                                 0                       # DTB hits
system.cpu.dtb.inst_accesses                        0                       # ITB inst accesses
system.cpu.dtb.inst_hits                            0                       # ITB inst hits
system.cpu.dtb.inst_misses                          0                       # ITB inst misses
system.cpu.dtb.misses                               0                       # DTB misses
system.cpu.dtb.perms_faults                         0                       # Number of TLB faults due to permissions restrictions
system.cpu.dtb.prefetch_faults                      0                       # Number of TLB faults due to prefetch
system.cpu.dtb.read_accesses                        0                       # DTB read accesses
system.cpu.dtb.read_hits                            0                       # DTB read hits
system.cpu.dtb.read_misses                          0                       # DTB read misses
system.cpu.dtb.stage2_mmu.stage2_tlb.accesses            0                       # DTB accesses
system.cpu.dtb.stage2_mmu.stage2_tlb.align_faults            0                       # Number of TLB faults due to alignment restrictions
system.cpu.dtb.stage2_mmu.stage2_tlb.domain_faults            0                       # Number of TLB faults due to domain restrictions
system.cpu.dtb.stage2_mmu.stage2_tlb.flush_entries            0                       # Number of entries that have been flushed from TLB
system.cpu.dtb.stage2_mmu.stage2_tlb.flush_tlb            0                       # Number of times complete TLB was flushed
system.cpu.dtb.stage2_mmu.stage2_tlb.flush_tlb_asid            0                       # Number of times TLB was flushed by ASID
system.cpu.dtb.stage2_mmu.stage2_tlb.flush_tlb_mva            0                       # Number of times TLB was flushed by MVA
system.cpu.dtb.stage2_mmu.stage2_tlb.flush_tlb_mva_asid            0                       # Number of times TLB was flushed by MVA & ASID
system.cpu.dtb.stage2_mmu.stage2_tlb.hits            0                       # DTB hits
system.cpu.dtb.stage2_mmu.stage2_tlb.inst_accesses            0                       # ITB inst accesses
system.cpu.dtb.stage2_mmu.stage2_tlb.inst_hits            0                       # ITB inst hits
system.cpu.dtb.stage2_mmu.stage2_tlb.inst_misses            0                       # ITB inst misses
system.cpu.dtb.stage2_mmu.stage2_tlb.misses            0                       # DTB misses
system.cpu.dtb.stage2_mmu.stage2_tlb.perms_faults            0                       # Number of TLB faults due to permissions restrictions
system.cpu.dtb.stage2_mmu.stage2_tlb.prefetch_faults            0                       # Number of TLB faults due to prefetch
system.cpu.dtb.stage2_mmu.stage2_tlb.read_accesses            0                       # DTB read accesses
system.cpu.dtb.stage2_mmu.stage2_tlb.read_hits            0                       # DTB read hits
system.cpu.dtb.stage2_mmu.stage2_tlb.read_misses            0                       # DTB read misses
system.cpu.dtb.stage2_mmu.stage2_tlb.walker.walkRequestOrigin_Requested::Data            0                       # Table walker requests started/completed, data/inst
system.cpu.dtb.stage2_mmu.stage2_tlb.walker.walkRequestOrigin_Requested::Inst            0                       # Table walker requests started/completed, data/inst
system.cpu.dtb.stage2_mmu.stage2_tlb.walker.walkRequestOrigin_Requested::total            0                       # Table walker requests started/completed, data/inst
system.cpu.dtb.stage2_mmu.stage2_tlb.walker.walkRequestOrigin_Completed::Data            0                       # Table walker requests started/completed, data/inst
system.cpu.dtb.stage2_mmu.stage2_tlb.walker.walkRequestOrigin_Completed::Inst            0                       # Table walker requests started/completed, data/inst
system.cpu.dtb.stage2_mmu.stage2_tlb.walker.walkRequestOrigin_Completed::total            0                       # Table walker requests started/completed, data/inst
system.cpu.dtb.stage2_mmu.stage2_tlb.walker.walkRequestOrigin::total            0                       # Table walker requests started/completed, data/inst
system.cpu.dtb.stage2_mmu.stage2_tlb.walker.walks            0                       # Table walker walks requested
system.cpu.dtb.stage2_mmu.stage2_tlb.write_accesses            0                       # DTB write accesses
system.cpu.dtb.stage2_mmu.stage2_tlb.write_hits            0                       # DTB write hits
system.cpu.dtb.stage2_mmu.stage2_tlb.write_misses            0                       # DTB write misses
system.cpu.dtb.walker.walkRequestOrigin_Requested::Data            0                       # Table walker requests started/completed, data/inst
system.cpu.dtb.walker.walkRequestOrigin_Requested::Inst            0                       # Table walker requests started/completed, data/inst
system.cpu.dtb.walker.walkRequestOrigin_Requested::total            0                       # Table walker requests started/completed, data/inst
system.cpu.dtb.walker.walkRequestOrigin_Completed::Data            0                       # Table walker requests started/completed, data/inst
system.cpu.dtb.walker.walkRequestOrigin_Completed::Inst            0                       # Table walker requests started/completed, data/inst
system.cpu.dtb.walker.walkRequestOrigin_Completed::total            0                       # Table walker requests started/completed, data/inst
system.cpu.dtb.walker.walkRequestOrigin::total            0                       # Table walker requests started/completed, data/inst
system.cpu.dtb.walker.walks                         0                       # Table walker walks requested
system.cpu.dtb.write_accesses                       0                       # DTB write accesses
system.cpu.dtb.write_hits                           0                       # DTB write hits
system.cpu.dtb.write_misses                         0                       # DTB write misses
system.cpu.fetch.Branches                      539377                       # Number of branches that fetch encountered
system.cpu.fetch.CacheLines                    306398                       # Number of cache lines fetched
system.cpu.fetch.Cycles                      60561689                       # Number of cycles fetch has run and was not squashing or blocked
system.cpu.fetch.IcacheSquashes                  1331                       # Number of outstanding Icache misses that were squashed
system.cpu.fetch.Insts                        2209996                       # Number of instructions fetch has processed
system.cpu.fetch.SquashCycles                    4830                       # Number of cycles fetch has spent squashing
system.cpu.fetch.branchRate                  0.005294                       # Number of branch fetches per cycle
system.cpu.fetch.icacheStallCycles            7075585                       # Number of cycles fetch is stalled on an Icache miss
system.cpu.fetch.predictedBranches             238032                       # Number of branches that fetch has predicted taken
system.cpu.fetch.rate                        0.021693                       # Number of inst fetches per cycle
system.cpu.fetch.rateDist::samples           67639689                       # Number of instructions fetched each cycle (Total)
system.cpu.fetch.rateDist::mean              0.032887                       # Number of instructions fetched each cycle (Total)
system.cpu.fetch.rateDist::stdev             0.429015                       # Number of instructions fetched each cycle (Total)
system.cpu.fetch.rateDist::underflows               0      0.00%      0.00% # Number of instructions fetched each cycle (Total)
system.cpu.fetch.rateDist::0                 67125848     99.24%     99.24% # Number of instructions fetched each cycle (Total)
system.cpu.fetch.rateDist::1                    59716      0.09%     99.33% # Number of instructions fetched each cycle (Total)
system.cpu.fetch.rateDist::2                    71617      0.11%     99.43% # Number of instructions fetched each cycle (Total)
system.cpu.fetch.rateDist::3                   122832      0.18%     99.62% # Number of instructions fetched each cycle (Total)
system.cpu.fetch.rateDist::4                    40606      0.06%     99.68% # Number of instructions fetched each cycle (Total)
system.cpu.fetch.rateDist::5                    31990      0.05%     99.72% # Number of instructions fetched each cycle (Total)
system.cpu.fetch.rateDist::6                    69127      0.10%     99.83% # Number of instructions fetched each cycle (Total)
system.cpu.fetch.rateDist::7                    27747      0.04%     99.87% # Number of instructions fetched each cycle (Total)
system.cpu.fetch.rateDist::8                    90206      0.13%    100.00% # Number of instructions fetched each cycle (Total)
system.cpu.fetch.rateDist::overflows                0      0.00%    100.00% # Number of instructions fetched each cycle (Total)
system.cpu.fetch.rateDist::min_value                0                       # Number of instructions fetched each cycle (Total)
system.cpu.fetch.rateDist::max_value                8                       # Number of instructions fetched each cycle (Total)
system.cpu.fetch.rateDist::total             67639689                       # Number of instructions fetched each cycle (Total)
system.cpu.idleCycles                        34236051                       # Total number of cycles that the CPU has spent unscheduled due to idling
system.cpu.iew.branchMispredicts                 2401                       # Number of branch mispredicts detected at execute
system.cpu.iew.exec_branches                   510116                       # Number of branches executed
system.cpu.iew.exec_nop                             0                       # number of nop insts executed
system.cpu.iew.exec_rate                     0.055072                       # Inst execution rate
system.cpu.iew.exec_refs                      4019215                       # number of memory reference insts executed
system.cpu.iew.exec_stores                      35982                       # Number of stores executed
system.cpu.iew.exec_swp                             0                       # number of swp insts executed
system.cpu.iew.iewBlockCycles                62381854                       # Number of cycles IEW is blocking
system.cpu.iew.iewDispLoadInsts                477873                       # Number of dispatched load instructions
system.cpu.iew.iewDispNonSpecInsts                  2                       # Number of dispatched non-speculative instructions
system.cpu.iew.iewDispSquashedInsts                27                       # Number of squashed instructions skipped by dispatch
system.cpu.iew.iewDispStoreInsts                41399                       # Number of dispatched store instructions
system.cpu.iew.iewDispatchedInsts             2161759                       # Number of instructions dispatched to IQ
system.cpu.iew.iewExecLoadInsts               3983233                       # Number of load instructions executed
system.cpu.iew.iewExecSquashedInsts               337                       # Number of squashed instructions skipped in execute
system.cpu.iew.iewExecutedInsts               5610493                       # Number of executed instructions
system.cpu.iew.iewIQFullEvents                   6227                       # Number of times the IQ has become full, causing a stall
system.cpu.iew.iewIdleCycles                        0                       # Number of cycles IEW is idle
system.cpu.iew.iewLSQFullEvents                762502                       # Number of times the LSQ has become full, causing a stall
system.cpu.iew.iewSquashCycles                   2362                       # Number of cycles IEW is squashing
system.cpu.iew.iewUnblockCycles                869214                       # Number of cycles IEW is unblocking
system.cpu.iew.lsq.thread0.blockedLoads             0                       # Number of blocked loads due to partial load-store forwarding
system.cpu.iew.lsq.thread0.cacheBlocked          1472                       # Number of times an access to memory failed due to the cache being blocked
system.cpu.iew.lsq.thread0.forwLoads                0                       # Number of loads that had data forwarded from stores
system.cpu.iew.lsq.thread0.ignoredResponses            0                       # Number of memory responses ignored because the instruction is squashed
system.cpu.iew.lsq.thread0.invAddrLoads             0                       # Number of loads ignored due to an invalid address
system.cpu.iew.lsq.thread0.invAddrSwpfs             0                       # Number of software prefetches ignored due to an invalid address
system.cpu.iew.lsq.thread0.memOrderViolation            0                       # Number of memory ordering violations
system.cpu.iew.lsq.thread0.rescheduledLoads      3537808                       # Number of loads that were rescheduled
system.cpu.iew.lsq.thread0.squashedLoads        32469                       # Number of loads squashed
system.cpu.iew.lsq.thread0.squashedStores         8798                       # Number of stores squashed
system.cpu.iew.memOrderViolationEvents              0                       # Number of memory order violations
system.cpu.iew.predictedNotTakenIncorrect         1406                       # Number of branches that were predicted not taken incorrectly
system.cpu.iew.predictedTakenIncorrect            995                       # Number of branches that were predicted taken incorrectly
system.cpu.iew.wb_consumers                   2074784                       # num instructions consuming a value
system.cpu.iew.wb_count                       2072685                       # cumulative count of insts written-back
system.cpu.iew.wb_fanout                     0.652445                       # average fanout of values written-back
system.cpu.iew.wb_producers                   1353682                       # num instructions producing a value
system.cpu.iew.wb_rate                       0.020345                       # insts written-back per cycle
system.cpu.iew.wb_sent                        5610493                       # cumulative count of insts sent to commit
system.cpu.int_regfile_reads                  6979781                       # number of integer regfile reads
system.cpu.int_regfile_writes                 1037408                       # number of integer regfile writes
system.cpu.ipc                               0.020056                       # IPC: Instructions Per Cycle
system.cpu.ipc_total                         0.020056                       # IPC: Total IPC of All Threads
system.cpu.iq.FU_type_0::No_OpClass                 0      0.00%      0.00% # Type of FU issued
system.cpu.iq.FU_type_0::IntAlu               1590910     28.35%     28.35% # Type of FU issued
system.cpu.iq.FU_type_0::IntMult                  438      0.01%     28.36% # Type of FU issued
system.cpu.iq.FU_type_0::IntDiv                     0      0.00%     28.36% # Type of FU issued
system.cpu.iq.FU_type_0::FloatAdd                   0      0.00%     28.36% # Type of FU issued
system.cpu.iq.FU_type_0::FloatCmp                   0      0.00%     28.36% # Type of FU issued
system.cpu.iq.FU_type_0::FloatCvt                   0      0.00%     28.36% # Type of FU issued
system.cpu.iq.FU_type_0::FloatMult                  0      0.00%     28.36% # Type of FU issued
system.cpu.iq.FU_type_0::FloatMultAcc               0      0.00%     28.36% # Type of FU issued
system.cpu.iq.FU_type_0::FloatDiv                   0      0.00%     28.36% # Type of FU issued
system.cpu.iq.FU_type_0::FloatMisc                  0      0.00%     28.36% # Type of FU issued
system.cpu.iq.FU_type_0::FloatSqrt                  0      0.00%     28.36% # Type of FU issued
system.cpu.iq.FU_type_0::SimdAdd                    0      0.00%     28.36% # Type of FU issued
system.cpu.iq.FU_type_0::SimdAddAcc                 0      0.00%     28.36% # Type of FU issued
system.cpu.iq.FU_type_0::SimdAlu                    0      0.00%     28.36% # Type of FU issued
system.cpu.iq.FU_type_0::SimdCmp                    0      0.00%     28.36% # Type of FU issued
system.cpu.iq.FU_type_0::SimdCvt                    0      0.00%     28.36% # Type of FU issued
system.cpu.iq.FU_type_0::SimdMisc                   0      0.00%     28.36% # Type of FU issued
system.cpu.iq.FU_type_0::SimdMult                   0      0.00%     28.36% # Type of FU issued
system.cpu.iq.FU_type_0::SimdMultAcc                0      0.00%     28.36% # Type of FU issued
system.cpu.iq.FU_type_0::SimdShift                  0      0.00%     28.36% # Type of FU issued
system.cpu.iq.FU_type_0::SimdShiftAcc               0      0.00%     28.36% # Type of FU issued
system.cpu.iq.FU_type_0::SimdDiv                    0      0.00%     28.36% # Type of FU issued
system.cpu.iq.FU_type_0::SimdSqrt                   0      0.00%     28.36% # Type of FU issued
system.cpu.iq.FU_type_0::SimdFloatAdd               0      0.00%     28.36% # Type of FU issued
system.cpu.iq.FU_type_0::SimdFloatAlu               0      0.00%     28.36% # Type of FU issued
system.cpu.iq.FU_type_0::SimdFloatCmp               0      0.00%     28.36% # Type of FU issued
system.cpu.iq.FU_type_0::SimdFloatCvt               0      0.00%     28.36% # Type of FU issued
system.cpu.iq.FU_type_0::SimdFloatDiv               0      0.00%     28.36% # Type of FU issued
system.cpu.iq.FU_type_0::SimdFloatMisc              0      0.00%     28.36% # Type of FU issued
system.cpu.iq.FU_type_0::SimdFloatMult              0      0.00%     28.36% # Type of FU issued
system.cpu.iq.FU_type_0::SimdFloatMultAcc            0      0.00%     28.36% # Type of FU issued
system.cpu.iq.FU_type_0::SimdFloatSqrt              0      0.00%     28.36% # Type of FU issued
system.cpu.iq.FU_type_0::SimdReduceAdd              0      0.00%     28.36% # Type of FU issued
system.cpu.iq.FU_type_0::SimdReduceAlu              0      0.00%     28.36% # Type of FU issued
system.cpu.iq.FU_type_0::SimdReduceCmp              0      0.00%     28.36% # Type of FU issued
system.cpu.iq.FU_type_0::SimdFloatReduceAdd            0      0.00%     28.36% # Type of FU issued
system.cpu.iq.FU_type_0::SimdFloatReduceCmp            0      0.00%     28.36% # Type of FU issued
system.cpu.iq.FU_type_0::SimdAes                    0      0.00%     28.36% # Type of FU issued
system.cpu.iq.FU_type_0::SimdAesMix                 0      0.00%     28.36% # Type of FU issued
system.cpu.iq.FU_type_0::SimdSha1Hash               0      0.00%     28.36% # Type of FU issued
system.cpu.iq.FU_type_0::SimdSha1Hash2              0      0.00%     28.36% # Type of FU issued
system.cpu.iq.FU_type_0::SimdSha256Hash             0      0.00%     28.36% # Type of FU issued
system.cpu.iq.FU_type_0::SimdSha256Hash2            0      0.00%     28.36% # Type of FU issued
system.cpu.iq.FU_type_0::SimdShaSigma2              0      0.00%     28.36% # Type of FU issued
system.cpu.iq.FU_type_0::SimdShaSigma3              0      0.00%     28.36% # Type of FU issued
system.cpu.iq.FU_type_0::SimdPredAlu                0      0.00%     28.36% # Type of FU issued
system.cpu.iq.FU_type_0::MemRead              3983264     70.99%     99.35% # Type of FU issued
system.cpu.iq.FU_type_0::MemWrite               36218      0.65%    100.00% # Type of FU issued
system.cpu.iq.FU_type_0::FloatMemRead               0      0.00%    100.00% # Type of FU issued
system.cpu.iq.FU_type_0::FloatMemWrite              0      0.00%    100.00% # Type of FU issued
system.cpu.iq.FU_type_0::IprAccess                  0      0.00%    100.00% # Type of FU issued
system.cpu.iq.FU_type_0::InstPrefetch               0      0.00%    100.00% # Type of FU issued
system.cpu.iq.FU_type_0::total                5610830                       # Type of FU issued
system.cpu.iq.fp_alu_accesses                       0                       # Number of floating point alu accesses
system.cpu.iq.fp_inst_queue_reads                   0                       # Number of floating instruction queue reads
system.cpu.iq.fp_inst_queue_wakeup_accesses            0                       # Number of floating instruction queue wakeup accesses
system.cpu.iq.fp_inst_queue_writes                  0                       # Number of floating instruction queue writes
system.cpu.iq.fu_busy_cnt                      638847                       # FU busy when requested
system.cpu.iq.fu_busy_rate                   0.113860                       # FU busy rate (busy events/executed inst)
system.cpu.iq.fu_full::No_OpClass                   0      0.00%      0.00% # attempts to use FU when none available
system.cpu.iq.fu_full::IntAlu                     225      0.04%      0.04% # attempts to use FU when none available
system.cpu.iq.fu_full::IntMult                      0      0.00%      0.04% # attempts to use FU when none available
system.cpu.iq.fu_full::IntDiv                       0      0.00%      0.04% # attempts to use FU when none available
system.cpu.iq.fu_full::FloatAdd                     0      0.00%      0.04% # attempts to use FU when none available
system.cpu.iq.fu_full::FloatCmp                     0      0.00%      0.04% # attempts to use FU when none available
system.cpu.iq.fu_full::FloatCvt                     0      0.00%      0.04% # attempts to use FU when none available
system.cpu.iq.fu_full::FloatMult                    0      0.00%      0.04% # attempts to use FU when none available
system.cpu.iq.fu_full::FloatMultAcc                 0      0.00%      0.04% # attempts to use FU when none available
system.cpu.iq.fu_full::FloatDiv                     0      0.00%      0.04% # attempts to use FU when none available
system.cpu.iq.fu_full::FloatMisc                    0      0.00%      0.04% # attempts to use FU when none available
system.cpu.iq.fu_full::FloatSqrt                    0      0.00%      0.04% # attempts to use FU when none available
system.cpu.iq.fu_full::SimdAdd                      0      0.00%      0.04% # attempts to use FU when none available
system.cpu.iq.fu_full::SimdAddAcc                   0      0.00%      0.04% # attempts to use FU when none available
system.cpu.iq.fu_full::SimdAlu                      0      0.00%      0.04% # attempts to use FU when none available
system.cpu.iq.fu_full::SimdCmp                      0      0.00%      0.04% # attempts to use FU when none available
system.cpu.iq.fu_full::SimdCvt                      0      0.00%      0.04% # attempts to use FU when none available
system.cpu.iq.fu_full::SimdMisc                     0      0.00%      0.04% # attempts to use FU when none available
system.cpu.iq.fu_full::SimdMult                     0      0.00%      0.04% # attempts to use FU when none available
system.cpu.iq.fu_full::SimdMultAcc                  0      0.00%      0.04% # attempts to use FU when none available
system.cpu.iq.fu_full::SimdShift                    0      0.00%      0.04% # attempts to use FU when none available
system.cpu.iq.fu_full::SimdShiftAcc                 0      0.00%      0.04% # attempts to use FU when none available
system.cpu.iq.fu_full::SimdDiv                      0      0.00%      0.04% # attempts to use FU when none available
system.cpu.iq.fu_full::SimdSqrt                     0      0.00%      0.04% # attempts to use FU when none available
system.cpu.iq.fu_full::SimdFloatAdd                 0      0.00%      0.04% # attempts to use FU when none available
system.cpu.iq.fu_full::SimdFloatAlu                 0      0.00%      0.04% # attempts to use FU when none available
system.cpu.iq.fu_full::SimdFloatCmp                 0      0.00%      0.04% # attempts to use FU when none available
system.cpu.iq.fu_full::SimdFloatCvt                 0      0.00%      0.04% # attempts to use FU when none available
system.cpu.iq.fu_full::SimdFloatDiv                 0      0.00%      0.04% # attempts to use FU when none available
system.cpu.iq.fu_full::SimdFloatMisc                0      0.00%      0.04% # attempts to use FU when none available
system.cpu.iq.fu_full::SimdFloatMult                0      0.00%      0.04% # attempts to use FU when none available
system.cpu.iq.fu_full::SimdFloatMultAcc             0      0.00%      0.04% # attempts to use FU when none available
system.cpu.iq.fu_full::SimdFloatSqrt                0      0.00%      0.04% # attempts to use FU when none available
system.cpu.iq.fu_full::SimdReduceAdd                0      0.00%      0.04% # attempts to use FU when none available
system.cpu.iq.fu_full::SimdReduceAlu                0      0.00%      0.04% # attempts to use FU when none available
system.cpu.iq.fu_full::SimdReduceCmp                0      0.00%      0.04% # attempts to use FU when none available
system.cpu.iq.fu_full::SimdFloatReduceAdd            0      0.00%      0.04% # attempts to use FU when none available
system.cpu.iq.fu_full::SimdFloatReduceCmp            0      0.00%      0.04% # attempts to use FU when none available
system.cpu.iq.fu_full::SimdAes                      0      0.00%      0.04% # attempts to use FU when none available
system.cpu.iq.fu_full::SimdAesMix                   0      0.00%      0.04% # attempts to use FU when none available
system.cpu.iq.fu_full::SimdSha1Hash                 0      0.00%      0.04% # attempts to use FU when none available
system.cpu.iq.fu_full::SimdSha1Hash2                0      0.00%      0.04% # attempts to use FU when none available
system.cpu.iq.fu_full::SimdSha256Hash               0      0.00%      0.04% # attempts to use FU when none available
system.cpu.iq.fu_full::SimdSha256Hash2              0      0.00%      0.04% # attempts to use FU when none available
system.cpu.iq.fu_full::SimdShaSigma2                0      0.00%      0.04% # attempts to use FU when none available
system.cpu.iq.fu_full::SimdShaSigma3                0      0.00%      0.04% # attempts to use FU when none available
system.cpu.iq.fu_full::SimdPredAlu                  0      0.00%      0.04% # attempts to use FU when none available
system.cpu.iq.fu_full::MemRead                 634118     99.26%     99.29% # attempts to use FU when none available
system.cpu.iq.fu_full::MemWrite                  4504      0.71%    100.00% # attempts to use FU when none available
system.cpu.iq.fu_full::FloatMemRead                 0      0.00%    100.00% # attempts to use FU when none available
system.cpu.iq.fu_full::FloatMemWrite                0      0.00%    100.00% # attempts to use FU when none available
system.cpu.iq.fu_full::IprAccess                    0      0.00%    100.00% # attempts to use FU when none available
system.cpu.iq.fu_full::InstPrefetch                 0      0.00%    100.00% # attempts to use FU when none available
system.cpu.iq.int_alu_accesses                6249677                       # Number of integer alu accesses
system.cpu.iq.int_inst_queue_reads           79500248                       # Number of integer instruction queue reads
system.cpu.iq.int_inst_queue_wakeup_accesses      2072685                       # Number of integer instruction queue wakeup accesses
system.cpu.iq.int_inst_queue_writes           2270415                       # Number of integer instruction queue writes
system.cpu.iq.iqInstsAdded                    2161757                       # Number of instructions added to the IQ (excludes non-spec)
system.cpu.iq.iqInstsIssued                   5610830                       # Number of instructions issued
system.cpu.iq.iqNonSpecInstsAdded                   2                       # Number of non-speculative instructions added to the IQ
system.cpu.iq.iqSquashedInstsExamined          108656                       # Number of squashed instructions iterated over during squash; mainly for profiling
system.cpu.iq.iqSquashedInstsIssued                52                       # Number of squashed instructions issued
system.cpu.iq.iqSquashedOperandsExamined       398688                       # Number of squashed operands that are examined and possibly removed from graph
system.cpu.iq.issued_per_cycle::samples      67639689                       # Number of insts issued each cycle
system.cpu.iq.issued_per_cycle::mean         0.082952                       # Number of insts issued each cycle
system.cpu.iq.issued_per_cycle::stdev        0.499779                       # Number of insts issued each cycle
system.cpu.iq.issued_per_cycle::underflows            0      0.00%      0.00% # Number of insts issued each cycle
system.cpu.iq.issued_per_cycle::0            65082530     96.22%     96.22% # Number of insts issued each cycle
system.cpu.iq.issued_per_cycle::1             1349608      2.00%     98.21% # Number of insts issued each cycle
system.cpu.iq.issued_per_cycle::2              241417      0.36%     98.57% # Number of insts issued each cycle
system.cpu.iq.issued_per_cycle::3              153710      0.23%     98.80% # Number of insts issued each cycle
system.cpu.iq.issued_per_cycle::4              768081      1.14%     99.93% # Number of insts issued each cycle
system.cpu.iq.issued_per_cycle::5               25182      0.04%     99.97% # Number of insts issued each cycle
system.cpu.iq.issued_per_cycle::6               15281      0.02%     99.99% # Number of insts issued each cycle
system.cpu.iq.issued_per_cycle::7                3702      0.01%    100.00% # Number of insts issued each cycle
system.cpu.iq.issued_per_cycle::8                 178      0.00%    100.00% # Number of insts issued each cycle
system.cpu.iq.issued_per_cycle::overflows            0      0.00%    100.00% # Number of insts issued each cycle
system.cpu.iq.issued_per_cycle::min_value            0                       # Number of insts issued each cycle
system.cpu.iq.issued_per_cycle::max_value            8                       # Number of insts issued each cycle
system.cpu.iq.issued_per_cycle::total        67639689                       # Number of insts issued each cycle
system.cpu.iq.rate                           0.055075                       # Inst issue rate
system.cpu.iq.vec_alu_accesses                      0                       # Number of vector alu accesses
system.cpu.iq.vec_inst_queue_reads                  0                       # Number of vector instruction queue reads
system.cpu.iq.vec_inst_queue_wakeup_accesses            0                       # Number of vector instruction queue wakeup accesses
system.cpu.iq.vec_inst_queue_writes                 0                       # Number of vector instruction queue writes
system.cpu.itb.accesses                             0                       # DTB accesses
system.cpu.itb.align_faults                         0                       # Number of TLB faults due to alignment restrictions
system.cpu.itb.domain_faults                        0                       # Number of TLB faults due to domain restrictions
system.cpu.itb.flush_entries                        0                       # Number of entries that have been flushed from TLB
system.cpu.itb.flush_tlb                            0                       # Number of times complete TLB was flushed
system.cpu.itb.flush_tlb_asid                       0                       # Number of times TLB was flushed by ASID
system.cpu.itb.flush_tlb_mva                        0                       # Number of times TLB was flushed by MVA
system.cpu.itb.flush_tlb_mva_asid                   0                       # Number of times TLB was flushed by MVA & ASID
system.cpu.itb.hits                                 0                       # DTB hits
system.cpu.itb.inst_accesses                        0                       # ITB inst accesses
system.cpu.itb.inst_hits                            0                       # ITB inst hits
system.cpu.itb.inst_misses                          0                       # ITB inst misses
system.cpu.itb.misses                               0                       # DTB misses
system.cpu.itb.perms_faults                         0                       # Number of TLB faults due to permissions restrictions
system.cpu.itb.prefetch_faults                      0                       # Number of TLB faults due to prefetch
system.cpu.itb.read_accesses                        0                       # DTB read accesses
system.cpu.itb.read_hits                            0                       # DTB read hits
system.cpu.itb.read_misses                          0                       # DTB read misses
system.cpu.itb.stage2_mmu.stage2_tlb.accesses            0                       # DTB accesses
system.cpu.itb.stage2_mmu.stage2_tlb.align_faults            0                       # Number of TLB faults due to alignment restrictions
system.cpu.itb.stage2_mmu.stage2_tlb.domain_faults            0                       # Number of TLB faults due to domain restrictions
system.cpu.itb.stage2_mmu.stage2_tlb.flush_entries            0                       # Number of entries that have been flushed from TLB
system.cpu.itb.stage2_mmu.stage2_tlb.flush_tlb            0                       # Number of times complete TLB was flushed
system.cpu.itb.stage2_mmu.stage2_tlb.flush_tlb_asid            0                       # Number of times TLB was flushed by ASID
system.cpu.itb.stage2_mmu.stage2_tlb.flush_tlb_mva            0                       # Number of times TLB was flushed by MVA
system.cpu.itb.stage2_mmu.stage2_tlb.flush_tlb_mva_asid            0                       # Number of times TLB was flushed by MVA & ASID
system.cpu.itb.stage2_mmu.stage2_tlb.hits            0                       # DTB hits
system.cpu.itb.stage2_mmu.stage2_tlb.inst_accesses            0                       # ITB inst accesses
system.cpu.itb.stage2_mmu.stage2_tlb.inst_hits            0                       # ITB inst hits
system.cpu.itb.stage2_mmu.stage2_tlb.inst_misses            0                       # ITB inst misses
system.cpu.itb.stage2_mmu.stage2_tlb.misses            0                       # DTB misses
system.cpu.itb.stage2_mmu.stage2_tlb.perms_faults            0                       # Number of TLB faults due to permissions restrictions
system.cpu.itb.stage2_mmu.stage2_tlb.prefetch_faults            0                       # Number of TLB faults due to prefetch
system.cpu.itb.stage2_mmu.stage2_tlb.read_accesses            0                       # DTB read accesses
system.cpu.itb.stage2_mmu.stage2_tlb.read_hits            0                       # DTB read hits
system.cpu.itb.stage2_mmu.stage2_tlb.read_misses            0                       # DTB read misses
system.cpu.itb.stage2_mmu.stage2_tlb.walker.walkRequestOrigin_Requested::Data            0                       # Table walker requests started/completed, data/inst
system.cpu.itb.stage2_mmu.stage2_tlb.walker.walkRequestOrigin_Requested::Inst            0                       # Table walker requests started/completed, data/inst
system.cpu.itb.stage2_mmu.stage2_tlb.walker.walkRequestOrigin_Requested::total            0                       # Table walker requests started/completed, data/inst
system.cpu.itb.stage2_mmu.stage2_tlb.walker.walkRequestOrigin_Completed::Data            0                       # Table walker requests started/completed, data/inst
system.cpu.itb.stage2_mmu.stage2_tlb.walker.walkRequestOrigin_Completed::Inst            0                       # Table walker requests started/completed, data/inst
system.cpu.itb.stage2_mmu.stage2_tlb.walker.walkRequestOrigin_Completed::total            0                       # Table walker requests started/completed, data/inst
system.cpu.itb.stage2_mmu.stage2_tlb.walker.walkRequestOrigin::total            0                       # Table walker requests started/completed, data/inst
system.cpu.itb.stage2_mmu.stage2_tlb.walker.walks            0                       # Table walker walks requested
system.cpu.itb.stage2_mmu.stage2_tlb.write_accesses            0                       # DTB write accesses
system.cpu.itb.stage2_mmu.stage2_tlb.write_hits            0                       # DTB write hits
system.cpu.itb.stage2_mmu.stage2_tlb.write_misses            0                       # DTB write misses
system.cpu.itb.walker.walkRequestOrigin_Requested::Data            0                       # Table walker requests started/completed, data/inst
system.cpu.itb.walker.walkRequestOrigin_Requested::Inst            0                       # Table walker requests started/completed, data/inst
system.cpu.itb.walker.walkRequestOrigin_Requested::total            0                       # Table walker requests started/completed, data/inst
system.cpu.itb.walker.walkRequestOrigin_Completed::Data            0                       # Table walker requests started/completed, data/inst
system.cpu.itb.walker.walkRequestOrigin_Completed::Inst            0                       # Table walker requests started/completed, data/inst
system.cpu.itb.walker.walkRequestOrigin_Completed::total            0                       # Table walker requests started/completed, data/inst
system.cpu.itb.walker.walkRequestOrigin::total            0                       # Table walker requests started/completed, data/inst
system.cpu.itb.walker.walks                         0                       # Table walker walks requested
system.cpu.itb.write_accesses                       0                       # DTB write accesses
system.cpu.itb.write_hits                           0                       # DTB write hits
system.cpu.itb.write_misses                         0                       # DTB write misses
system.cpu.kern.inst.arm                            0                       # number of arm instructions executed
system.cpu.kern.inst.quiesce                        0                       # number of quiesce instructions executed
system.cpu.memDep0.conflictingLoads                 0                       # Number of conflicting loads.
system.cpu.memDep0.conflictingStores                0                       # Number of conflicting stores.
system.cpu.memDep0.insertedLoads               477873                       # Number of loads inserted to the mem dependence unit.
system.cpu.memDep0.insertedStores               41399                       # Number of stores inserted to the mem dependence unit.
system.cpu.misc_regfile_reads                72451641                       # number of misc regfile reads
system.cpu.numCycles                        101875740                       # number of cpu cycles simulated
system.cpu.numWorkItemsCompleted                    0                       # number of work items this cpu completed
system.cpu.numWorkItemsStarted                      0                       # number of work items this cpu started
system.cpu.rename.BlockCycles                64687579                       # Number of cycles rename is blocking
system.cpu.rename.CommittedMaps               2335928                       # Number of HB maps that are committed
system.cpu.rename.IQFullEvents                1326060                       # Number of times rename has blocked due to IQ full
system.cpu.rename.IdleCycles                  1006288                       # Number of cycles rename is idle
system.cpu.rename.LQFullEvents                 690512                       # Number of times rename has blocked due to LQ full
system.cpu.rename.ROBFullEvents                    15                       # Number of times rename has blocked due to ROB full
system.cpu.rename.RenameLookups               9066805                       # Number of register rename lookups that rename has made
system.cpu.rename.RenamedInsts                2165671                       # Number of instructions processed by rename
system.cpu.rename.RenamedOperands             2454712                       # Number of destination operands rename has renamed
system.cpu.rename.RunCycles                    166094                       # Number of cycles rename is running
system.cpu.rename.SQFullEvents                 162479                       # Number of times rename has blocked due to SQ full
system.cpu.rename.SquashCycles                   2362                       # Number of cycles rename is squashing
system.cpu.rename.UnblockCycles               1777366                       # Number of cycles rename is unblocking
system.cpu.rename.UndoneMaps                   118845                       # Number of HB maps that are undone due to squashing
system.cpu.rename.int_rename_lookups          2049082                       # Number of integer rename lookups
system.cpu.rename.serializeStallCycles              0                       # count of cycles rename stalled for serializing inst
system.cpu.rename.serializingInsts                  0                       # count of serializing insts renamed
system.cpu.rename.skidInsts                   1582162                       # count of insts added to the skid buffer
system.cpu.rename.tempSerializingInsts              0                       # count of temporary serializing insts renamed
system.cpu.rob.rob_reads                     69772930                       # The number of ROB reads
system.cpu.rob.rob_writes                     4338564                       # The number of ROB writes
system.cpu.timesIdled                          421330                       # Number of times that the entire CPU went into an idle state and unscheduled itself
system.membus.snoop_filter.hit_multi_requests            0                       # Number of requests hitting in the snoop filter with multiple (>1) holders of the requested data.
system.membus.snoop_filter.hit_multi_snoops            0                       # Number of snoops hitting in the snoop filter with multiple (>1) holders of the requested data.
system.membus.snoop_filter.hit_single_requests            0                       # Number of requests hitting in the snoop filter with a single holder of the requested data.
system.membus.snoop_filter.hit_single_snoops            0                       # Number of snoops hitting in the snoop filter with a single holder of the requested data.
system.membus.snoop_filter.tot_requests             0                       # Total number of requests made to the snoop filter.
system.membus.snoop_filter.tot_snoops               0                       # Total number of snoops made to the snoop filter.
system.tol2bus.snoop_filter.hit_multi_requests            0                       # Number of requests hitting in the snoop filter with multiple (>1) holders of the requested data.
system.tol2bus.snoop_filter.hit_multi_snoops            0                       # Number of snoops hitting in the snoop filter with multiple (>1) holders of the requested data.
system.tol2bus.snoop_filter.hit_single_requests            0                       # Number of requests hitting in the snoop filter with a single holder of the requested data.
system.tol2bus.snoop_filter.hit_single_snoops            0                       # Number of snoops hitting in the snoop filter with a single holder of the requested data.
system.tol2bus.snoop_filter.tot_requests            0                       # Total number of requests made to the snoop filter.
system.tol2bus.snoop_filter.tot_snoops              0                       # Total number of snoops made to the snoop filter.
system.tol2bus.pwrStateResidencyTicks::UNDEFINED  51349187500                       # Cumulative time (in ticks) in various power states
system.tol2bus.trans_dist::ReadReq             751506                       # Transaction distribution
system.tol2bus.trans_dist::ReadResp            751507                       # Transaction distribution
system.tol2bus.trans_dist::WriteReq             32137                       # Transaction distribution
system.tol2bus.trans_dist::WriteResp            32137                       # Transaction distribution
system.tol2bus.pkt_count_system.cpu.icache.mem_side::system.l2.cpu_side       612797                       # Packet count per connected master and slave (bytes)
system.tol2bus.pkt_count_system.cpu.dcache.mem_side::system.l2.cpu_side       954490                       # Packet count per connected master and slave (bytes)
system.tol2bus.pkt_count::total               1567287                       # Packet count per connected master and slave (bytes)
system.tol2bus.pkt_size_system.cpu.icache.mem_side::system.l2.cpu_side     19609536                       # Cumulative packet size per connected master and slave (bytes)
system.tol2bus.pkt_size_system.cpu.dcache.mem_side::system.l2.cpu_side      1313637                       # Cumulative packet size per connected master and slave (bytes)
system.tol2bus.pkt_size::total               20923173                       # Cumulative packet size per connected master and slave (bytes)
system.tol2bus.snoops                               0                       # Total snoops (count)
system.tol2bus.snoopTraffic                         0                       # Total snoop traffic (bytes)
system.tol2bus.snoop_fanout::samples           785155                       # Request fanout histogram
system.tol2bus.snoop_fanout::mean                   0                       # Request fanout histogram
system.tol2bus.snoop_fanout::stdev                  0                       # Request fanout histogram
system.tol2bus.snoop_fanout::underflows             0      0.00%      0.00% # Request fanout histogram
system.tol2bus.snoop_fanout::0                 785155    100.00%    100.00% # Request fanout histogram
system.tol2bus.snoop_fanout::1                      0      0.00%    100.00% # Request fanout histogram
system.tol2bus.snoop_fanout::2                      0      0.00%    100.00% # Request fanout histogram
system.tol2bus.snoop_fanout::overflows              0      0.00%    100.00% # Request fanout histogram
system.tol2bus.snoop_fanout::min_value              0                       # Request fanout histogram
system.tol2bus.snoop_fanout::max_value              0                       # Request fanout histogram
system.tol2bus.snoop_fanout::total             785155                       # Request fanout histogram
system.tol2bus.reqLayer0.occupancy          409392504                       # Layer occupancy (ticks)
system.tol2bus.reqLayer0.utilization              0.8                       # Layer utilization (%)
system.tol2bus.respLayer1.occupancy         461176500                       # Layer occupancy (ticks)
system.tol2bus.respLayer1.utilization             0.9                       # Layer utilization (%)
system.tol2bus.respLayer0.occupancy         459598500                       # Layer occupancy (ticks)
system.tol2bus.respLayer0.utilization             0.9                       # Layer utilization (%)
system.bridge.pwrStateResidencyTicks::UNDEFINED  51349187500                       # Cumulative time (in ticks) in various power states
system.voltage_domain.voltage                       1                       # Voltage in Volts
system.iocache.pwrStateResidencyTicks::UNDEFINED  51349187500                       # Cumulative time (in ticks) in various power states
system.iocache.blocked_cycles::no_mshrs             0                       # number of cycles access was blocked
system.iocache.blocked_cycles::no_targets            0                       # number of cycles access was blocked
system.iocache.blocked::no_mshrs                    0                       # number of cycles access was blocked
system.iocache.blocked::no_targets                  0                       # number of cycles access was blocked
system.iocache.avg_blocked_cycles::no_mshrs          nan                       # average number of cycles each access was blocked
system.iocache.avg_blocked_cycles::no_targets          nan                       # average number of cycles each access was blocked
system.iocache.replacements                         0                       # number of replacements
system.iocache.tags.pwrStateResidencyTicks::UNDEFINED  51349187500                       # Cumulative time (in ticks) in various power states
system.iocache.tags.tagsinuse                       0                       # Cycle average of tags in use
system.iocache.tags.total_refs                      0                       # Total number of references to valid blocks.
system.iocache.tags.sampled_refs                    0                       # Sample count of references to valid blocks.
system.iocache.tags.avg_refs                      nan                       # Average number of references to valid blocks.
system.iocache.tags.warmup_cycle                    0                       # Cycle when the warmup percentage was hit.
system.iocache.tags.tag_accesses                    0                       # Number of tag accesses
system.iocache.tags.data_accesses                   0                       # Number of data accesses
system.membus.pwrStateResidencyTicks::UNDEFINED  51349187500                       # Cumulative time (in ticks) in various power states
system.membus.trans_dist::ReadReq             1036081                       # Transaction distribution
system.membus.trans_dist::ReadResp            1036081                       # Transaction distribution
system.membus.trans_dist::WriteReq             227465                       # Transaction distribution
system.membus.trans_dist::WriteResp            227465                       # Transaction distribution
system.membus.pkt_count_system.l2.mem_side::system.realview.bootmem.port       613670                       # Packet count per connected master and slave (bytes)
system.membus.pkt_count_system.l2.mem_side::system.mem_ctrls.port       561596                       # Packet count per connected master and slave (bytes)
system.membus.pkt_count_system.l2.mem_side::system.acctest.mem2cls.slave       392022                       # Packet count per connected master and slave (bytes)
system.membus.pkt_count_system.l2.mem_side::total      1567288                       # Packet count per connected master and slave (bytes)
system.membus.pkt_count_system.acctest.coherency_bus.master[0]::system.mem_ctrls.port       959804                       # Packet count per connected master and slave (bytes)
system.membus.pkt_count_system.acctest.coherency_bus.master[0]::total       959804                       # Packet count per connected master and slave (bytes)
system.membus.pkt_count::total                2527092                       # Packet count per connected master and slave (bytes)
system.membus.pkt_size_system.l2.mem_side::system.realview.bootmem.port     19611280                       # Cumulative packet size per connected master and slave (bytes)
system.membus.pkt_size_system.l2.mem_side::system.mem_ctrls.port      1115882                       # Cumulative packet size per connected master and slave (bytes)
system.membus.pkt_size_system.l2.mem_side::system.acctest.mem2cls.slave       196011                       # Cumulative packet size per connected master and slave (bytes)
system.membus.pkt_size_system.l2.mem_side::total     20923173                       # Cumulative packet size per connected master and slave (bytes)
system.membus.pkt_size_system.acctest.coherency_bus.master[0]::system.mem_ctrls.port     16003168                       # Cumulative packet size per connected master and slave (bytes)
system.membus.pkt_size_system.acctest.coherency_bus.master[0]::total     16003168                       # Cumulative packet size per connected master and slave (bytes)
system.membus.pkt_size::total                36926341                       # Cumulative packet size per connected master and slave (bytes)
system.membus.snoops                                0                       # Total snoops (count)
system.membus.snoopTraffic                          0                       # Total snoop traffic (bytes)
system.membus.snoop_fanout::samples           1378223                       # Request fanout histogram
system.membus.snoop_fanout::mean                    0                       # Request fanout histogram
system.membus.snoop_fanout::stdev                   0                       # Request fanout histogram
system.membus.snoop_fanout::underflows              0      0.00%      0.00% # Request fanout histogram
system.membus.snoop_fanout::0                 1378223    100.00%    100.00% # Request fanout histogram
system.membus.snoop_fanout::1                       0      0.00%    100.00% # Request fanout histogram
system.membus.snoop_fanout::2                       0      0.00%    100.00% # Request fanout histogram
system.membus.snoop_fanout::3                       0      0.00%    100.00% # Request fanout histogram
system.membus.snoop_fanout::overflows               0      0.00%    100.00% # Request fanout histogram
system.membus.snoop_fanout::min_value               0                       # Request fanout histogram
system.membus.snoop_fanout::max_value               0                       # Request fanout histogram
system.membus.snoop_fanout::total             1378223                       # Request fanout histogram
system.membus.reqLayer6.occupancy          1522307560                       # Layer occupancy (ticks)
system.membus.reqLayer6.utilization               3.0                       # Layer utilization (%)
system.membus.reqLayer7.occupancy           307002984                       # Layer occupancy (ticks)
system.membus.reqLayer7.utilization               0.6                       # Layer utilization (%)
system.membus.reqLayer1.occupancy           337901870                       # Layer occupancy (ticks)
system.membus.reqLayer1.utilization               0.7                       # Layer utilization (%)
system.membus.badaddr_responder.pwrStateResidencyTicks::UNDEFINED  51349187500                       # Cumulative time (in ticks) in various power states
system.membus.respLayer4.occupancy         1208329500                       # Layer occupancy (ticks)
system.membus.respLayer4.utilization              2.4                       # Layer utilization (%)
system.membus.respLayer3.occupancy         2458545496                       # Layer occupancy (ticks)
system.membus.respLayer3.utilization              4.8                       # Layer utilization (%)
system.acctest.harris_non_max0_spm.pwrStateResidencyTicks::UNDEFINED  51349187500                       # Cumulative time (in ticks) in various power states
system.acctest.harris_non_max0_spm.bytes_read::.acctest.harris_non_max0.system.acctest.harris_non_max0       262144                       # Number of bytes read from this memory
system.acctest.harris_non_max0_spm.bytes_read::.acctest.harris_non_max0_dma        65536                       # Number of bytes read from this memory
system.acctest.harris_non_max0_spm.bytes_read::total       327680                       # Number of bytes read from this memory
system.acctest.harris_non_max0_spm.bytes_written::.acctest.harris_non_max0.system.acctest.harris_non_max0        65536                       # Number of bytes written to this memory
system.acctest.harris_non_max0_spm.bytes_written::.acctest.harris_non_max0_dma       262144                       # Number of bytes written to this memory
system.acctest.harris_non_max0_spm.bytes_written::total       327680                       # Number of bytes written to this memory
system.acctest.harris_non_max0_spm.num_reads::.acctest.harris_non_max0.system.acctest.harris_non_max0        65536                       # Number of read requests responded to by this memory
system.acctest.harris_non_max0_spm.num_reads::.acctest.harris_non_max0_dma         2048                       # Number of read requests responded to by this memory
system.acctest.harris_non_max0_spm.num_reads::total        67584                       # Number of read requests responded to by this memory
system.acctest.harris_non_max0_spm.num_writes::.acctest.harris_non_max0.system.acctest.harris_non_max0        65536                       # Number of write requests responded to by this memory
system.acctest.harris_non_max0_spm.num_writes::.acctest.harris_non_max0_dma         8192                       # Number of write requests responded to by this memory
system.acctest.harris_non_max0_spm.num_writes::total        73728                       # Number of write requests responded to by this memory
system.acctest.harris_non_max0_spm.bw_read::.acctest.harris_non_max0.system.acctest.harris_non_max0      5146348                       # Total read bandwidth from this memory (bytes/s)
system.acctest.harris_non_max0_spm.bw_read::.acctest.harris_non_max0_dma      1286587                       # Total read bandwidth from this memory (bytes/s)
system.acctest.harris_non_max0_spm.bw_read::total      6432935                       # Total read bandwidth from this memory (bytes/s)
system.acctest.harris_non_max0_spm.bw_write::.acctest.harris_non_max0.system.acctest.harris_non_max0      1286587                       # Write bandwidth from this memory (bytes/s)
system.acctest.harris_non_max0_spm.bw_write::.acctest.harris_non_max0_dma      5146348                       # Write bandwidth from this memory (bytes/s)
system.acctest.harris_non_max0_spm.bw_write::total      6432935                       # Write bandwidth from this memory (bytes/s)
system.acctest.harris_non_max0_spm.bw_total::.acctest.harris_non_max0.system.acctest.harris_non_max0      6432935                       # Total bandwidth to/from this memory (bytes/s)
system.acctest.harris_non_max0_spm.bw_total::.acctest.harris_non_max0_dma      6432935                       # Total bandwidth to/from this memory (bytes/s)
system.acctest.harris_non_max0_spm.bw_total::total     12865870                       # Total bandwidth to/from this memory (bytes/s)
system.acctest.elem_matrix2_spm.pwrStateResidencyTicks::UNDEFINED  51349187500                       # Cumulative time (in ticks) in various power states
system.acctest.elem_matrix3_spm.pwrStateResidencyTicks::UNDEFINED  51349187500                       # Cumulative time (in ticks) in various power states
system.acctest.local_bus.pwrStateResidencyTicks::UNDEFINED  51349187500                       # Cumulative time (in ticks) in various power states
system.acctest.local_bus.trans_dist::ReadReq       587369                       # Transaction distribution
system.acctest.local_bus.trans_dist::ReadResp       587369                       # Transaction distribution
system.acctest.local_bus.trans_dist::WriteReq       514322                       # Transaction distribution
system.acctest.local_bus.trans_dist::WriteResp       514322                       # Transaction distribution
system.acctest.local_bus.pkt_count_system.acctest.mem2cls.master::system.acctest.canny_non_max0.pio        24592                       # Packet count per connected master and slave (bytes)
system.acctest.local_bus.pkt_count_system.acctest.mem2cls.master::system.acctest.canny_non_max0_dma.pio         2394                       # Packet count per connected master and slave (bytes)
system.acctest.local_bus.pkt_count_system.acctest.mem2cls.master::system.acctest.convolution0.pio        28048                       # Packet count per connected master and slave (bytes)
system.acctest.local_bus.pkt_count_system.acctest.mem2cls.master::system.acctest.convolution0_dma.pio        20372                       # Packet count per connected master and slave (bytes)
system.acctest.local_bus.pkt_count_system.acctest.mem2cls.master::system.acctest.convolution1.pio        27976                       # Packet count per connected master and slave (bytes)
system.acctest.local_bus.pkt_count_system.acctest.mem2cls.master::system.acctest.convolution1_dma.pio        16408                       # Packet count per connected master and slave (bytes)
system.acctest.local_bus.pkt_count_system.acctest.mem2cls.master::system.acctest.edge_tracking0.pio        24568                       # Packet count per connected master and slave (bytes)
system.acctest.local_bus.pkt_count_system.acctest.mem2cls.master::system.acctest.edge_tracking0_dma.pio         1410                       # Packet count per connected master and slave (bytes)
system.acctest.local_bus.pkt_count_system.acctest.mem2cls.master::system.acctest.elem_matrix0.pio        28812                       # Packet count per connected master and slave (bytes)
system.acctest.local_bus.pkt_count_system.acctest.mem2cls.master::system.acctest.elem_matrix0_dma.pio        30860                       # Packet count per connected master and slave (bytes)
system.acctest.local_bus.pkt_count_system.acctest.mem2cls.master::system.acctest.elem_matrix1.pio        26912                       # Packet count per connected master and slave (bytes)
system.acctest.local_bus.pkt_count_system.acctest.mem2cls.master::system.acctest.elem_matrix1_dma.pio        29734                       # Packet count per connected master and slave (bytes)
system.acctest.local_bus.pkt_count_system.acctest.mem2cls.master::system.acctest.elem_matrix2.pio        24024                       # Packet count per connected master and slave (bytes)
system.acctest.local_bus.pkt_count_system.acctest.mem2cls.master::system.acctest.elem_matrix3.pio        24024                       # Packet count per connected master and slave (bytes)
system.acctest.local_bus.pkt_count_system.acctest.mem2cls.master::system.acctest.grayscale0.pio        24456                       # Packet count per connected master and slave (bytes)
system.acctest.local_bus.pkt_count_system.acctest.mem2cls.master::system.acctest.grayscale0_dma.pio         5012                       # Packet count per connected master and slave (bytes)
system.acctest.local_bus.pkt_count_system.acctest.mem2cls.master::system.acctest.harris_non_max0.pio        24208                       # Packet count per connected master and slave (bytes)
system.acctest.local_bus.pkt_count_system.acctest.mem2cls.master::system.acctest.harris_non_max0_dma.pio         1656                       # Packet count per connected master and slave (bytes)
system.acctest.local_bus.pkt_count_system.acctest.mem2cls.master::system.acctest.isp0.pio        24616                       # Packet count per connected master and slave (bytes)
system.acctest.local_bus.pkt_count_system.acctest.mem2cls.master::system.acctest.isp0_dma.pio         1940                       # Packet count per connected master and slave (bytes)
system.acctest.local_bus.pkt_count_system.acctest.mem2cls.master::total       392022                       # Packet count per connected master and slave (bytes)
[...]
system.mem_ctrls.masterReadRate::.acctest.convolution0_dma 43804577.391757205129                       # Per-master bytes read from memory rate (Bytes/sec)
system.mem_ctrls.masterReadRate::.acctest.convolution1_dma 43804577.391757205129                       # Per-master bytes read from memory rate (Bytes/sec)
system.mem_ctrls.masterReadRate::.acctest.elem_matrix0_dma 41131517.211172126234                       # Per-master bytes read from memory rate (Bytes/sec)
system.mem_ctrls.masterReadRate::.acctest.elem_matrix1_dma 46301265.857724368572                       # Per-master bytes read from memory rate (Bytes/sec)
system.mem_ctrls.masterReadRate::.acctest.harris_non_max0_dma 2573173.795458636247                       # Per-master bytes read from memory rate (Bytes/sec)
system.mem_ctrls.masterReadRate::.acctest.isp0_dma 3981320.539238063619                       # Per-master bytes read from memory rate (Bytes/sec)
system.mem_ctrls.masterReadRate::.cpu.data 20435069.992027346045                       # Per-master bytes read from memory rate (Bytes/sec)
system.mem_ctrls.masterWriteRate::.acctest.convolution0_dma 14798890.405180443078                       # Per-master bytes write to memory rate (Bytes/sec)
system.mem_ctrls.masterWriteRate::.acctest.convolution1_dma 1931450.887240619399                       # Per-master bytes write to memory rate (Bytes/sec)
system.mem_ctrls.masterWriteRate::.acctest.edge_tracking0_dma 1046294.178793056402                       # Per-master bytes write to memory rate (Bytes/sec)
system.mem_ctrls.masterWriteRate::.acctest.elem_matrix0_dma 36037311.569723375142                       # Per-master bytes write to memory rate (Bytes/sec)
system.mem_ctrls.masterWriteRate::.acctest.elem_matrix1_dma 37307878.952856943011                       # Per-master bytes write to memory rate (Bytes/sec)
system.mem_ctrls.masterWriteRate::.acctest.grayscale0_dma 11423013.285222960636                       # Per-master bytes write to memory rate (Bytes/sec)
system.mem_ctrls.masterWriteRate::.acctest.harris_non_max0_dma 1046294.178793056402                       # Per-master bytes write to memory rate (Bytes/sec)
system.mem_ctrls.masterWriteRate::.cpu.data 148416.091107691114                       # Per-master bytes write to memory rate (Bytes/sec)
system.mem_ctrls.masterReadAccesses::.acctest.canny_non_max0_dma        11264                       # Per-master read serviced memory accesses
system.mem_ctrls.masterReadAccesses::.acctest.convolution0_dma       100507                       # Per-master read serviced memory accesses
system.mem_ctrls.masterReadAccesses::.acctest.convolution1_dma        91289                       # Per-master read serviced memory accesses
system.mem_ctrls.masterReadAccesses::.acctest.elem_matrix0_dma        90116                       # Per-master read serviced memory accesses
system.mem_ctrls.masterReadAccesses::.acctest.elem_matrix1_dma       101376                       # Per-master read serviced memory accesses
system.mem_ctrls.masterReadAccesses::.acctest.harris_non_max0_dma         5120                       # Per-master read serviced memory accesses
system.mem_ctrls.masterReadAccesses::.acctest.isp0_dma         8724                       # Per-master read serviced memory accesses
system.mem_ctrls.masterReadAccesses::.cpu.data       262907                       # Per-master read serviced memory accesses
system.mem_ctrls.masterWriteAccesses::.acctest.convolution0_dma        38912                       # Per-master write serviced memory accesses
system.mem_ctrls.masterWriteAccesses::.acctest.convolution1_dma         6144                       # Per-master write serviced memory accesses
system.mem_ctrls.masterWriteAccesses::.acctest.edge_tracking0_dma         2816                       # Per-master write serviced memory accesses
system.mem_ctrls.masterWriteAccesses::.acctest.elem_matrix0_dma       106496                       # Per-master write serviced memory accesses
system.mem_ctrls.masterWriteAccesses::.acctest.elem_matrix1_dma        90112                       # Per-master write serviced memory accesses
system.mem_ctrls.masterWriteAccesses::.acctest.grayscale0_dma        30720                       # Per-master write serviced memory accesses
system.mem_ctrls.masterWriteAccesses::.acctest.harris_non_max0_dma         2816                       # Per-master write serviced memory accesses
system.mem_ctrls.masterWriteAccesses::.cpu.data        17991                       # Per-master write serviced memory accesses
system.mem_ctrls.masterReadTotalLat::.acctest.canny_non_max0_dma   1364936000                       # Per-master read total memory access latency
system.mem_ctrls.masterReadTotalLat::.acctest.convolution0_dma  12901510500                       # Per-master read total memory access latency
system.mem_ctrls.masterReadTotalLat::.acctest.convolution1_dma  10604259000                       # Per-master read total memory access latency
system.mem_ctrls.masterReadTotalLat::.acctest.elem_matrix0_dma  11065434000                       # Per-master read total memory access latency
system.mem_ctrls.masterReadTotalLat::.acctest.elem_matrix1_dma  12401894500                       # Per-master read total memory access latency
system.mem_ctrls.masterReadTotalLat::.acctest.harris_non_max0_dma    565596000                       # Per-master read total memory access latency
system.mem_ctrls.masterReadTotalLat::.acctest.isp0_dma   1060148500                       # Per-master read total memory access latency
system.mem_ctrls.masterReadTotalLat::.cpu.data   6707877004                       # Per-master read total memory access latency
system.mem_ctrls.masterWriteTotalLat::.acctest.convolution0_dma  41563140000                       # Per-master write total memory access latency
system.mem_ctrls.masterWriteTotalLat::.acctest.convolution1_dma  31366647500                       # Per-master write total memory access latency
system.mem_ctrls.masterWriteTotalLat::.acctest.edge_tracking0_dma  23150039500                       # Per-master write total memory access latency
system.mem_ctrls.masterWriteTotalLat::.acctest.elem_matrix0_dma 181632574000                       # Per-master write total memory access latency
system.mem_ctrls.masterWriteTotalLat::.acctest.elem_matrix1_dma 485096594504                       # Per-master write total memory access latency
system.mem_ctrls.masterWriteTotalLat::.acctest.grayscale0_dma  32906234500                       # Per-master write total memory access latency
system.mem_ctrls.masterWriteTotalLat::.acctest.harris_non_max0_dma  35952923500                       # Per-master write total memory access latency
system.mem_ctrls.masterWriteTotalLat::.cpu.data 246159738069                       # Per-master write total memory access latency
system.mem_ctrls.masterReadAvgLat::.acctest.canny_non_max0_dma    121176.85                       # Per-master read average memory access latency
system.mem_ctrls.masterReadAvgLat::.acctest.convolution0_dma    128364.30                       # Per-master read average memory access latency
system.mem_ctrls.masterReadAvgLat::.acctest.convolution1_dma    116161.41                       # Per-master read average memory access latency
system.mem_ctrls.masterReadAvgLat::.acctest.elem_matrix0_dma    122791.00                       # Per-master read average memory access latency
system.mem_ctrls.masterReadAvgLat::.acctest.elem_matrix1_dma    122335.61                       # Per-master read average memory access latency
system.mem_ctrls.masterReadAvgLat::.acctest.harris_non_max0_dma    110467.97                       # Per-master read average memory access latency
system.mem_ctrls.masterReadAvgLat::.acctest.isp0_dma    121520.92                       # Per-master read average memory access latency
system.mem_ctrls.masterReadAvgLat::.cpu.data     25514.26                       # Per-master read average memory access latency
system.mem_ctrls.masterWriteAvgLat::.acctest.convolution0_dma   1068131.68                       # Per-master write average memory access latency
system.mem_ctrls.masterWriteAvgLat::.acctest.convolution1_dma   5105248.62                       # Per-master write average memory access latency
system.mem_ctrls.masterWriteAvgLat::.acctest.edge_tracking0_dma   8220894.71                       # Per-master write average memory access latency
system.mem_ctrls.masterWriteAvgLat::.acctest.elem_matrix0_dma   1705534.24                       # Per-master write average memory access latency
system.mem_ctrls.masterWriteAvgLat::.acctest.elem_matrix1_dma   5383262.99                       # Per-master write average memory access latency
system.mem_ctrls.masterWriteAvgLat::.acctest.grayscale0_dma   1071166.49                       # Per-master write average memory access latency
system.mem_ctrls.masterWriteAvgLat::.acctest.harris_non_max0_dma  12767373.40                       # Per-master write average memory access latency
system.mem_ctrls.masterWriteAvgLat::.cpu.data  13682382.19                       # Per-master write average memory access latency
system.mem_ctrls.pageHitRate                    91.98                       # Row buffer hit rate, read and write combined
system.mem_ctrls.rank0.actEnergy            125208825                       # Energy for activate commands per rank (pJ)
system.mem_ctrls.rank0.preEnergy         65989593.600009                       # Energy for precharge commands per rank (pJ)
system.mem_ctrls.rank0.readEnergy           787026240                       # Energy for read commands per rank (pJ)
system.mem_ctrls.rank0.writeEnergy          191946456                       # Energy for write commands per rank (pJ)
system.mem_ctrls.rank0.refreshEnergy        317289960                       # Energy for refresh commands per rank (pJ)
system.mem_ctrls.rank0.actBackEnergy       2116701846                       # Energy for active background per rank (pJ)
system.mem_ctrls.rank0.preBackEnergy     106666459.200012                       # Energy for precharge background per rank (pJ)
system.mem_ctrls.rank0.actPowerDownEnergy            0                       # Energy for active power-down per rank (pJ)
system.mem_ctrls.rank0.prePowerDownEnergy            0                       # Energy for precharge power-down per rank (pJ)
system.mem_ctrls.rank0.selfRefreshEnergy            0                       # Energy for self refresh per rank (pJ)
system.mem_ctrls.rank0.totalEnergy       3710829379.800038                       # Total energy per rank (pJ)
system.mem_ctrls.rank0.averagePower         72.850105                       # Core power per rank (mW)
system.mem_ctrls.rank0.totalIdleTime                0                       # Total Idle time Per DRAM Rank
system.mem_ctrls.rank0.memoryStateTime::IDLE   2697857500                       # Time in different power states
system.mem_ctrls.rank0.memoryStateTime::REF   1705860000                       # Time in different power states
system.mem_ctrls.rank0.memoryStateTime::SREF            0                       # Time in different power states
system.mem_ctrls.rank0.memoryStateTime::PRE_PDN            0                       # Time in different power states
system.mem_ctrls.rank0.memoryStateTime::ACT  46537715000                       # Time in different power states
system.mem_ctrls.rank0.memoryStateTime::ACT_PDN            0                       # Time in different power states
system.iobus.pwrStateResidencyTicks::UNDEFINED  51349190500                       # Cumulative time (in ticks) in various power states
system.cpu_clk_domain.clock                       500                       # Clock period in ticks
system.cpu.pwrStateResidencyTicks::ON     51349190500                       # Cumulative time (in ticks) in various power states
system.cpu.icache.pwrStateResidencyTicks::UNDEFINED  51349190500                       # Cumulative time (in ticks) in various power states
system.cpu.icache.blocked_cycles::no_mshrs            0                       # number of cycles access was blocked
system.cpu.icache.blocked_cycles::no_targets            0                       # number of cycles access was blocked
system.cpu.icache.blocked::no_mshrs                 0                       # number of cycles access was blocked
system.cpu.icache.blocked::no_targets               0                       # number of cycles access was blocked
system.cpu.icache.avg_blocked_cycles::no_mshrs          nan                       # average number of cycles each access was blocked
system.cpu.icache.avg_blocked_cycles::no_targets          nan                       # average number of cycles each access was blocked
system.cpu.icache.overall_mshr_uncacheable_misses::.cpu.inst       306398                       # number of overall MSHR uncacheable misses
system.cpu.icache.overall_mshr_uncacheable_misses::total       306398                       # number of overall MSHR uncacheable misses
system.cpu.icache.overall_mshr_uncacheable_latency::.cpu.inst  20258552500                       # number of overall MSHR uncacheable cycles
system.cpu.icache.overall_mshr_uncacheable_latency::total  20258552500                       # number of overall MSHR uncacheable cycles
system.cpu.icache.overall_avg_mshr_uncacheable_latency::.cpu.inst 66118.422770                       # average overall mshr uncacheable latency
system.cpu.icache.overall_avg_mshr_uncacheable_latency::total 66118.422770                       # average overall mshr uncacheable latency
system.cpu.icache.replacements                      0                       # number of replacements
system.cpu.icache.ReadReq_mshr_uncacheable::.cpu.inst       306398                       # number of ReadReq MSHR uncacheable
system.cpu.icache.ReadReq_mshr_uncacheable::total       306398                       # number of ReadReq MSHR uncacheable
system.cpu.icache.ReadReq_mshr_uncacheable_latency::.cpu.inst  20258552500                       # number of ReadReq MSHR uncacheable cycles
system.cpu.icache.ReadReq_mshr_uncacheable_latency::total  20258552500                       # number of ReadReq MSHR uncacheable cycles
system.cpu.icache.ReadReq_avg_mshr_uncacheable_latency::.cpu.inst 66118.422770                       # average ReadReq mshr uncacheable latency
system.cpu.icache.ReadReq_avg_mshr_uncacheable_latency::total 66118.422770                       # average ReadReq mshr uncacheable latency
system.cpu.icache.tags.pwrStateResidencyTicks::UNDEFINED  51349190500                       # Cumulative time (in ticks) in various power states
system.cpu.icache.tags.tagsinuse                    0                       # Cycle average of tags in use
system.cpu.icache.tags.total_refs                   0                       # Total number of references to valid blocks.
system.cpu.icache.tags.sampled_refs                 0                       # Sample count of references to valid blocks.
system.cpu.icache.tags.avg_refs                   nan                       # Average number of references to valid blocks.
system.cpu.icache.tags.warmup_cycle                 0                       # Cycle when the warmup percentage was hit.
system.cpu.icache.tags.tag_accesses                 0                       # Number of tag accesses
system.cpu.icache.tags.data_accesses                0                       # Number of data accesses
system.cpu.dtb.walker.pwrStateResidencyTicks::UNDEFINED  51349190500                       # Cumulative time (in ticks) in various power states
system.cpu.dtb.stage2_mmu.stage2_tlb.walker.pwrStateResidencyTicks::UNDEFINED  51349190500                       # Cumulative time (in ticks) in various power states
system.cpu.itb.walker.pwrStateResidencyTicks::UNDEFINED  51349190500                       # Cumulative time (in ticks) in various power states
system.cpu.itb.stage2_mmu.stage2_tlb.walker.pwrStateResidencyTicks::UNDEFINED  51349190500                       # Cumulative time (in ticks) in various power states
system.cpu.dcache.pwrStateResidencyTicks::UNDEFINED  51349190500                       # Cumulative time (in ticks) in various power states
system.cpu.dcache.blocked_cycles::no_mshrs            0                       # number of cycles access was blocked
system.cpu.dcache.blocked_cycles::no_targets            0                       # number of cycles access was blocked
system.cpu.dcache.blocked::no_mshrs                 0                       # number of cycles access was blocked
system.cpu.dcache.blocked::no_targets               0                       # number of cycles access was blocked
system.cpu.dcache.avg_blocked_cycles::no_mshrs          nan                       # average number of cycles each access was blocked
system.cpu.dcache.avg_blocked_cycles::no_targets          nan                       # average number of cycles each access was blocked
system.cpu.dcache.overall_mshr_uncacheable_misses::.cpu.data       477245                       # number of overall MSHR uncacheable misses
system.cpu.dcache.overall_mshr_uncacheable_misses::total       477245                       # number of overall MSHR uncacheable misses
system.cpu.dcache.overall_mshr_uncacheable_latency::.cpu.data  46109220500                       # number of overall MSHR uncacheable cycles
system.cpu.dcache.overall_mshr_uncacheable_latency::total  46109220500                       # number of overall MSHR uncacheable cycles
system.cpu.dcache.overall_avg_mshr_uncacheable_latency::.cpu.data 96615.408228                       # average overall mshr uncacheable latency
system.cpu.dcache.overall_avg_mshr_uncacheable_latency::total 96615.408228                       # average overall mshr uncacheable latency
system.cpu.dcache.replacements                      0                       # number of replacements
system.cpu.dcache.ReadReq_mshr_uncacheable::.cpu.data       445108                       # number of ReadReq MSHR uncacheable
system.cpu.dcache.ReadReq_mshr_uncacheable::total       445108                       # number of ReadReq MSHR uncacheable
system.cpu.dcache.ReadReq_mshr_uncacheable_latency::.cpu.data  46109220500                       # number of ReadReq MSHR uncacheable cycles
system.cpu.dcache.ReadReq_mshr_uncacheable_latency::total  46109220500                       # number of ReadReq MSHR uncacheable cycles
system.cpu.dcache.ReadReq_avg_mshr_uncacheable_latency::.cpu.data 103591.084636                       # average ReadReq mshr uncacheable latency
system.cpu.dcache.ReadReq_avg_mshr_uncacheable_latency::total 103591.084636                       # average ReadReq mshr uncacheable latency
system.cpu.dcache.WriteReq_mshr_uncacheable::.cpu.data        32137                       # number of WriteReq MSHR uncacheable
system.cpu.dcache.WriteReq_mshr_uncacheable::total        32137                       # number of WriteReq MSHR uncacheable
system.cpu.dcache.tags.pwrStateResidencyTicks::UNDEFINED  51349190500                       # Cumulative time (in ticks) in various power states
system.cpu.dcache.tags.tagsinuse                    0                       # Cycle average of tags in use
system.cpu.dcache.tags.total_refs                   0                       # Total number of references to valid blocks.
system.cpu.dcache.tags.sampled_refs                 0                       # Sample count of references to valid blocks.
system.cpu.dcache.tags.avg_refs                   nan                       # Average number of references to valid blocks.
system.cpu.dcache.tags.warmup_cycle                 0                       # Cycle when the warmup percentage was hit.
system.cpu.dcache.tags.tag_accesses                 0                       # Number of tag accesses
system.cpu.dcache.tags.data_accesses                0                       # Number of data accesses

---------- End Simulation Statistics   ----------
