gem5 Simulator System.  http://gem5.org
gem5 is copyrighted software; use the --copyright option for details.

gem5 compiled Apr 14 2022 20:31:20
gem5 started Mar  3 2023 17:28:11
gem5 executing on node4x10a.cs.rochester.edu, pid 35400
command line: /u/sgupta45/gem5-SALAM/build/ARM/gem5.opt --debug-flags=HWACC,CommInterface,LLVMInterface,StreamDma,NoncoherentDma,TickTimer --outdir=BM_ARM_OUT/solo_app_gem5_sched/canny_0_deblur_0_gru_0_harris_0_lstm_1_GEDF_N configs/SALAM/scheduler.py --mem-size=4GB --mem-type=LPDDR5_6400_1x16_BG_BL32 --kernel=/u/sgupta45/gem5-SALAM/benchmarks/scheduler/sw/bin_solo_app_gem5_sched/canny_0_deblur_0_gru_0_harris_0_lstm_1_GEDF_N.elf --vans-config-path=/u/sgupta45/VANS/config --disk-image=/u/sgupta45/gem5-SALAM/baremetal/common/fake.iso --machine-type=VExpress_GEM5_V1 --dtb-file=none --bare-metal --cpu-type=ex5_LITTLE --cpu-clock=1.6GHz --accpath=/u/sgupta45/gem5-SALAM/benchmarks --caches --cacheline_size=64 --l1d_size=32kB --l1d_assoc=4 --l1i_size=32kB --l1i_assoc=2

info: Standard input is not a terminal, disabling listeners.
Global frequency set at 1000000000000 ticks per second
Cycle Counts Loaded!
Cycle Counts Loaded!
Cycle Counts Loaded!
Cycle Counts Loaded!
Cycle Counts Loaded!
Cycle Counts Loaded!
Cycle Counts Loaded!
Cycle Counts Loaded!
Cycle Counts Loaded!
Cycle Counts Loaded!
Cycle Counts Loaded!
**** REAL SIMULATION ****
35375290875: system.acctest.elem_matrix0_dma: SRC:0x00000000821d8940, DST:0x0000000024000020, LEN:65536
35387255875: system.acctest.elem_matrix0_dma: Transfer completed in 11.965 us
35401728750: system.acctest.elem_matrix0_dma: SRC:0x0000000082098780, DST:0x0000000024010020, LEN:65536
35413701750: system.acctest.elem_matrix0_dma: Transfer completed in 11.973 us
********************************************************************************
system.acctest.elem_matrix0.compute
   ========= Performance Analysis =============
   Setup Time:                      3.0839seconds
   Simulation Time:                 70.9561seconds
   System Clock:                    1GHz
   Transistor Latency:              1ns
   Runtime:                         10932 cycles
   Runtime:                         10.932 us
   Stalls:                          0 cycles
   Executed Nodes:                  10931 cycles

********************************************************************************
   ========= Performance Analysis =================
   Setup Time:                      3.0839e+09ns
   Simulation Time:                 7.09561e+10ns
   System Clock:                    1GHz
   Transistor Latency:              0ns
   Runtime:                         10932 cycles
   Runtime:                         1.0932e-06 seconds
   Stalls:                          0 cycles
       Load Only:                   0 cycles
       Store Only:                  0 cycles
       Compute Only:                0 cycles
       Compute & Store:             0 cycles
       Load & Store:                0 cycles
       Load & Compute:              0 cycles
       Load & Compute & Store:      0 cycles
   Executed Nodes:                  10931 cycles
       Load Only:                   0 cycles
       Store Only:                  5 cycles
       Compute Only:                1 cycles
       Compute & Store:             21 cycles
       Load & Store:                0 cycles
       Load & Compute:              7 cycles
       Load & Compute & Store:      10897 cycles

   ========= Runtime FU's ========= (Max | Avg) ===
   Counter FU's:                      32 | 0.046838
   Integer Add/Sub FU's:               0 | 0.000000
   Integer Mul/Div FU's:               0 | 0.000000
   Integer Shifter FU's:               0 | 0.000000
   Integer Bitwise FU's:               1 | 0.000091
   Floating Point Float Add/Sub:      34 | 0.044252
   Floating Point Double Add/Sub:      0 | 0.000000
   Floating Point Float Mul/Div:       0 | 0.000000
   Floating Point Double Mul/Div:      0 | 0.000000
   0 Cycle Compare FU's:             102 | 0.046974
   GEP Instruction FU's:              96 | 0.046835
   Type Conversion FU's:               7 | 0.006782

   ========= Static FU's ==========================
   Counter FU's:                    0
   Integer Add/Sub FU's:            0
   Integer Mul/Div FU's:            0
   Integer Shifter FU's:            0
   Integer Bitwise FU's:            0
   Floating Point Float Add/Sub:    0
   Floating Point Double Add/Sub:   0
   Floating Point Float Mul/Div:    0
   Floating Point Double Mul/Div:   0
   0 Cycle Compare FU's:            0
   GEP Instruction FU's:            0
   Type Conversion FU's:            0
   Other:                           0

   ========= Pipeline Register Usage =============
   Total Number of Registers:       5641
   Max Register Usage Per Cycle:    138
   Avg Register Usage Per Cycle:    12.130992
   Avg Register Size (Bytes):       5.980606

   ========= Memory Configuration =================
   Cache Bus Ports:                 0
   Shared Cache Size:               0kB
   Local Bus Ports:                 0
   Private SPM Size:                256kB
   Private Read Ports:              0
   Private Write Ports:             0
   Private Read Bus Width:          64
   Private Write Bus Width:         64
       Memory Reads:                0
       Memory Writes:               0
   ========= Power Analysis ======================
   FU Leakage Power:                0.519269 mW 
   FU Dynamic Power:                0.154621 mW 
   FU Total Power:                  0.673890 mW 

   Registers Leakage Power:          0.005281 mW 
   Registers Dynamic Power:          0.015326 mW 
       Register Reads (Bits):        132616
       Register Writes (Bits):       133658
   Registers Total Power:            0.020607 mW

   SPM Leakage Power:               0.104100 mW
   SPM Read Dynamic Power:          1.997266 mW
   SPM Write Dynamic Power:         0.953321 mW
   SPM Total Power:                 3.054688 mW

   Cache Leakage Power:             0.000000 mW
   Cache Read Dynamic Power:        0.000000 mW
   Cache Write Dynamic Power:       0.000000 mW
   Cache Total Power:               0.000000 mW

   Accelerator Power:               0.694497 mW
   Accelerator Power (SPM):         3.749184 mW
   Accelerator Power (Cache):       0.694497 mW

   ========= Area Analysis =======================
   FU Area:                         70212.562500 um^2 (0.070213 mm^2)
   Register Area:                   429.271088 um^2 (0.000429 mm^2)
   SPM Area:                        2177.365505 um^2 (0.002177 mm^2)
   Cache Area:                      0.000000 um^2 (0.000000 mm^2)

   Accelerator Area:                70641.835938 um^2 (0.070642 mm^2)
   Accelerator Area (SPM):          72819.201442 um^2 (0.072819 mm^2)
   Accelerator Area (Cache):        70641.835938 um^2 (0.070642 mm^2)

   ========= SPM Resizing  =======================
   SPM Optimized Leakage Power:     0.004248 mW
   SPM Opt Area:                    178.524902 um^2

35441941625: system.acctest.elem_matrix0_dma: SRC:0x0000000082018780, DST:0x0000000024000020, LEN:65536
35442958750: system.acctest.elem_matrix1_dma: SRC:0x0000000024020020, DST:0x0000000024100020, LEN:65536
35443951000: system.acctest.elem_matrix2_dma: SRC:0x0000000024020020, DST:0x0000000024200020, LEN:65536
35444917000: system.acctest.elem_matrix3_dma: SRC:0x0000000024020020, DST:0x0000000024300020, LEN:65536
35462583625: system.acctest.elem_matrix0_dma: Transfer completed in 20.642 us
********************************************************************************
system.acctest.elem_matrix0.compute
   ========= Performance Analysis =============
   Setup Time:                      5.646176seconds
   Simulation Time:                 74.383920seconds
   System Clock:                    1.000000GHz
   Transistor Latency:              1ns
   Runtime:                         12150 cycles
   Runtime:                         12.150000 us
   Stalls:                          3 cycles
   Executed Nodes:                  12146 cycles

********************************************************************************
   ========= Performance Analysis =================
   Setup Time:                      5646175903.000000ns
   Simulation Time:                 74383920090.000000ns
   System Clock:                    1.000000GHz
   Transistor Latency:              0ns
   Runtime:                         12150 cycles
   Runtime:                         0.000001 seconds
   Stalls:                          3 cycles
       Load Only:                   0 cycles
       Store Only:                  2 cycles
       Compute Only:                1 cycles
       Compute & Store:             0 cycles
       Load & Store:                0 cycles
       Load & Compute:              0 cycles
       Load & Compute & Store:      0 cycles
   Executed Nodes:                  12146 cycles
       Load Only:                   0 cycles
       Store Only:                  150 cycles
       Compute Only:                3 cycles
       Compute & Store:             1089 cycles
       Load & Store:                0 cycles
       Load & Compute:              1220 cycles
       Load & Compute & Store:      9684 cycles

   ========= Runtime FU's ========= (Max | Avg) ===
   Counter FU's:                      32 | 0.042142
   Integer Add/Sub FU's:               0 | 0.000000
   Integer Mul/Div FU's:               0 | 0.000000
   Integer Shifter FU's:               0 | 0.000000
   Integer Bitwise FU's:               1 | 0.000082
   Floating Point Float Add/Sub:       0 | 0.000000
   Floating Point Double Add/Sub:      0 | 0.000000
   Floating Point Float Mul/Div:      34 | 0.041452
   Floating Point Double Mul/Div:      0 | 0.000000
   0 Cycle Compare FU's:             102 | 0.043159
   GEP Instruction FU's:              96 | 0.042140
   Type Conversion FU's:               7 | 0.006102

   ========= Static FU's ==========================
   Counter FU's:                    0
   Integer Add/Sub FU's:            0
   Integer Mul/Div FU's:            0
   Integer Shifter FU's:            0
   Integer Bitwise FU's:            0
   Floating Point Float Add/Sub:    0
   Floating Point Double Add/Sub:   0
   Floating Point Float Mul/Div:    0
   Floating Point Double Mul/Div:   0
   0 Cycle Compare FU's:            0
   GEP Instruction FU's:            0
   Type Conversion FU's:            0
   Other:                           0

   ========= Pipeline Register Usage =============
   Total Number of Registers:       5641
   Max Register Usage Per Cycle:    137
   Avg Register Usage Per Cycle:    10.914897
   Avg Register Size (Bytes):       5.980606

   ========= Memory Configuration =================
   Cache Bus Ports:                 0
   Shared Cache Size:               0kB
   Local Bus Ports:                 0
   Private SPM Size:                256kB
   Private Read Ports:              0
   Private Write Ports:             0
   Private Read Bus Width:          64
   Private Write Bus Width:         64
       Memory Reads:                0
       Memory Writes:               0
   ========= Power Analysis ======================
   FU Leakage Power:                0.045377 mW 
   FU Dynamic Power:                0.158859 mW 
   FU Total Power:                  0.204236 mW 

   Registers Leakage Power:          0.004401 mW 
   Registers Dynamic Power:          0.014194 mW 
       Register Reads (Bits):        132616
       Register Writes (Bits):       133658
   Registers Total Power:            0.018595 mW

   SPM Leakage Power:               0.104100 mW
   SPM Read Dynamic Power:          2.785289 mW
   SPM Write Dynamic Power:         2.044305 mW
   SPM Total Power:                 4.933694 mW

   Cache Leakage Power:             0.000000 mW
   Cache Read Dynamic Power:        0.000000 mW
   Cache Write Dynamic Power:       0.000000 mW
   Cache Total Power:               0.000000 mW

   Accelerator Power:               0.222831 mW
   Accelerator Power (SPM):         5.156525 mW
   Accelerator Power (Cache):       0.222831 mW

   ========= Area Analysis =======================
   FU Area:                         5472.068359 um^2 (0.005472 mm^2)
   Register Area:                   357.725922 um^2 (0.000358 mm^2)
   SPM Area:                        2177.365505 um^2 (0.002177 mm^2)
   Cache Area:                      0.000000 um^2 (0.000000 mm^2)

   Accelerator Area:                5829.794434 um^2 (0.005830 mm^2)
   Accelerator Area (SPM):          8007.159939 um^2 (0.008007 mm^2)
   Accelerator Area (Cache):        5829.794434 um^2 (0.005830 mm^2)

   ========= SPM Resizing  =======================
   SPM Optimized Leakage Power:     0.004248 mW
   SPM Opt Area:                    178.524902 um^2

35478791750: system.acctest.elem_matrix1_dma: Transfer completed in 35.833 us
35479613000: system.acctest.elem_matrix2_dma: Transfer completed in 35.662 us
35479915000: system.acctest.elem_matrix3_dma: Transfer completed in 34.998 us
35489650875: system.acctest.elem_matrix0_dma: SRC:0x0000000082028780, DST:0x0000000024000020, LEN:65536
35501596875: system.acctest.elem_matrix0_dma: Transfer completed in 11.946 us
35503148750: system.acctest.elem_matrix1_dma: SRC:0x0000000082038780, DST:0x0000000024110020, LEN:65536
35515135750: system.acctest.elem_matrix1_dma: Transfer completed in 11.987 us
********************************************************************************
system.acctest.elem_matrix0.compute
   ========= Performance Analysis =============
   Setup Time:                      6.179375seconds
   Simulation Time:                 74.118785seconds
   System Clock:                    1.000000GHz
   Transistor Latency:              1ns
   Runtime:                         10932 cycles
   Runtime:                         10.932000 us
   Stalls:                          0 cycles
   Executed Nodes:                  10931 cycles

********************************************************************************
   ========= Performance Analysis =================
   Setup Time:                      6179375060.000000ns
   Simulation Time:                 74118785194.000000ns
   System Clock:                    1.000000GHz
   Transistor Latency:              0ns
   Runtime:                         10932 cycles
   Runtime:                         0.000001 seconds
   Stalls:                          0 cycles
       Load Only:                   0 cycles
       Store Only:                  0 cycles
       Compute Only:                0 cycles
       Compute & Store:             0 cycles
       Load & Store:                0 cycles
       Load & Compute:              0 cycles
       Load & Compute & Store:      0 cycles
   Executed Nodes:                  10931 cycles
       Load Only:                   0 cycles
       Store Only:                  5 cycles
       Compute Only:                1 cycles
       Compute & Store:             21 cycles
       Load & Store:                0 cycles
       Load & Compute:              7 cycles
       Load & Compute & Store:      10897 cycles

   ========= Runtime FU's ========= (Max | Avg) ===
   Counter FU's:                      32 | 0.046838
   Integer Add/Sub FU's:               0 | 0.000000
   Integer Mul/Div FU's:               0 | 0.000000
   Integer Shifter FU's:               0 | 0.000000
   Integer Bitwise FU's:               1 | 0.000091
   Floating Point Float Add/Sub:      34 | 0.044252
   Floating Point Double Add/Sub:      0 | 0.000000
   Floating Point Float Mul/Div:       0 | 0.000000
   Floating Point Double Mul/Div:      0 | 0.000000
   0 Cycle Compare FU's:             102 | 0.046974
   GEP Instruction FU's:              96 | 0.046835
   Type Conversion FU's:               7 | 0.006782

   ========= Static FU's ==========================
   Counter FU's:                    0
   Integer Add/Sub FU's:            0
   Integer Mul/Div FU's:            0
   Integer Shifter FU's:            0
   Integer Bitwise FU's:            0
   Floating Point Float Add/Sub:    0
   Floating Point Double Add/Sub:   0
   Floating Point Float Mul/Div:    0
   Floating Point Double Mul/Div:   0
   0 Cycle Compare FU's:            0
   GEP Instruction FU's:            0
   Type Conversion FU's:            0
   Other:                           0

   ========= Pipeline Register Usage =============
   Total Number of Registers:       5641
   Max Register Usage Per Cycle:    138
   Avg Register Usage Per Cycle:    12.130992
   Avg Register Size (Bytes):       5.980606

   ========= Memory Configuration =================
   Cache Bus Ports:                 0
   Shared Cache Size:               0kB
   Local Bus Ports:                 0
   Private SPM Size:                256kB
   Private Read Ports:              0
   Private Write Ports:             0
   Private Read Bus Width:          64
   Private Write Bus Width:         64
       Memory Reads:                0
       Memory Writes:               0
   ========= Power Analysis ======================
   FU Leakage Power:                0.519269 mW 
   FU Dynamic Power:                0.154621 mW 
   FU Total Power:                  0.673890 mW 

   Registers Leakage Power:          0.005281 mW 
   Registers Dynamic Power:          0.015326 mW 
       Register Reads (Bits):        132616
       Register Writes (Bits):       133658
   Registers Total Power:            0.020607 mW

   SPM Leakage Power:               0.104100 mW
   SPM Read Dynamic Power:          3.776796 mW
   SPM Write Dynamic Power:         2.457440 mW
   SPM Total Power:                 6.338336 mW

   Cache Leakage Power:             0.000000 mW
   Cache Read Dynamic Power:        0.000000 mW
   Cache Write Dynamic Power:       0.000000 mW
   Cache Total Power:               0.000000 mW

   Accelerator Power:               0.694497 mW
   Accelerator Power (SPM):         7.032833 mW
   Accelerator Power (Cache):       0.694497 mW

   ========= Area Analysis =======================
   FU Area:                         70212.562500 um^2 (0.070213 mm^2)
   Register Area:                   429.271088 um^2 (0.000429 mm^2)
   SPM Area:                        2177.365505 um^2 (0.002177 mm^2)
   Cache Area:                      0.000000 um^2 (0.000000 mm^2)

   Accelerator Area:                70641.835938 um^2 (0.070642 mm^2)
   Accelerator Area (SPM):          72819.201442 um^2 (0.072819 mm^2)
   Accelerator Area (Cache):        70641.835938 um^2 (0.070642 mm^2)

   ========= SPM Resizing  =======================
   SPM Optimized Leakage Power:     0.004248 mW
   SPM Opt Area:                    178.524902 um^2

35518245875: system.acctest.elem_matrix2_dma: SRC:0x0000000082058780, DST:0x0000000024210020, LEN:65536
********************************************************************************
system.acctest.elem_matrix0.compute
   ========= Performance Analysis =============
   Setup Time:                      6.322324seconds
   Simulation Time:                 145.115549seconds
   System Clock:                    1.000000GHz
   Transistor Latency:              1ns
   Runtime:                         8316 cycles
   Runtime:                         8.316000 us
   Stalls:                          82 cycles
   Executed Nodes:                  8233 cycles

********************************************************************************
   ========= Performance Analysis =================
   Setup Time:                      6322324284.000000ns
   Simulation Time:                 145115549225.000000ns
   System Clock:                    1.000000GHz
   Transistor Latency:              0ns
   Runtime:                         8316 cycles
   Runtime:                         0.000001 seconds
   Stalls:                          82 cycles
       Load Only:                   0 cycles
       Store Only:                  77 cycles
       Compute Only:                0 cycles
       Compute & Store:             5 cycles
       Load & Store:                0 cycles
       Load & Compute:              0 cycles
       Load & Compute & Store:      0 cycles
   Executed Nodes:                  8233 cycles
       Load Only:                   0 cycles
       Store Only:                  11 cycles
       Compute Only:                1827 cycles
       Compute & Store:             3453 cycles
       Load & Store:                0 cycles
       Load & Compute:              774 cycles
       Load & Compute & Store:      2168 cycles

   ========= Runtime FU's ========= (Max | Avg) ===
   Counter FU's:                      32 | 0.061572
   Integer Add/Sub FU's:               0 | 0.000000
   Integer Mul/Div FU's:               0 | 0.000000
   Integer Shifter FU's:               0 | 0.000000
   Integer Bitwise FU's:               1 | 0.000120
   Floating Point Float Add/Sub:      80 | 0.302014
   Floating Point Double Add/Sub:      0 | 0.000000
   Floating Point Float Mul/Div:      35 | 0.056511
   Floating Point Double Mul/Div:      0 | 0.000000
   0 Cycle Compare FU's:              15 | 0.024828
   GEP Instruction FU's:              64 | 0.061568
   Type Conversion FU's:              66 | 0.120964

   ========= Static FU's ==========================
   Counter FU's:                    0
   Integer Add/Sub FU's:            0
   Integer Mul/Div FU's:            0
   Integer Shifter FU's:            0
   Integer Bitwise FU's:            0
   Floating Point Float Add/Sub:    0
   Floating Point Double Add/Sub:   0
   Floating Point Float Mul/Div:    0
   Floating Point Double Mul/Div:   0
   0 Cycle Compare FU's:            0
   GEP Instruction FU's:            0
   Type Conversion FU's:            0
   Other:                           0

   ========= Pipeline Register Usage =============
   Total Number of Registers:       5641
   Max Register Usage Per Cycle:    126
   Avg Register Usage Per Cycle:    27.706590
   Avg Register Size (Bytes):       5.993295

   ========= Memory Configuration =================
   Cache Bus Ports:                 0
   Shared Cache Size:               0kB
   Local Bus Ports:                 0
   Private SPM Size:                256kB
   Private Read Ports:              0
   Private Write Ports:             0
   Private Read Bus Width:          64
   Private Write Bus Width:         64
       Memory Reads:                0
       Memory Writes:               0
   ========= Power Analysis ======================
   FU Leakage Power:                1.265749 mW 
   FU Dynamic Power:                1.166708 mW 
   FU Total Power:                  2.432457 mW 

   Registers Leakage Power:          0.011908 mW 
   Registers Dynamic Power:          0.045645 mW 
       Register Reads (Bits):        230408
       Register Writes (Bits):       231961
   Registers Total Power:            0.057553 mW

   SPM Leakage Power:               0.104100 mW
   SPM Read Dynamic Power:          4.599549 mW
   SPM Write Dynamic Power:         2.880682 mW
   SPM Total Power:                 7.584331 mW

   Cache Leakage Power:             0.000000 mW
   Cache Read Dynamic Power:        0.000000 mW
   Cache Write Dynamic Power:       0.000000 mW
   Cache Total Power:               0.000000 mW

   Accelerator Power:               2.490010 mW
   Accelerator Power (SPM):         10.074342 mW
   Accelerator Power (Cache):       2.490010 mW

   ========= Area Analysis =======================
   FU Area:                         170559.593750 um^2 (0.170560 mm^2)
   Register Area:                   967.909180 um^2 (0.000968 mm^2)
   SPM Area:                        2177.365505 um^2 (0.002177 mm^2)
   Cache Area:                      0.000000 um^2 (0.000000 mm^2)

   Accelerator Area:                171527.500000 um^2 (0.171527 mm^2)
   Accelerator Area (SPM):          173704.865505 um^2 (0.173705 mm^2)
   Accelerator Area (Cache):        171527.500000 um^2 (0.171527 mm^2)

   ========= SPM Resizing  =======================
   SPM Optimized Leakage Power:     0.003887 mW
   SPM Opt Area:                    172.850411 um^2

35530200875: system.acctest.elem_matrix2_dma: Transfer completed in 11.955 us
********************************************************************************
system.acctest.elem_matrix1.compute
   ========= Performance Analysis =============
   Setup Time:                      3.230445seconds
   Simulation Time:                 161.364901seconds
   System Clock:                    1.000000GHz
   Transistor Latency:              1ns
   Runtime:                         10932 cycles
   Runtime:                         10.932000 us
   Stalls:                          1 cycles
   Executed Nodes:                  10930 cycles

********************************************************************************
   ========= Performance Analysis =================
   Setup Time:                      3230444567.000000ns
   Simulation Time:                 161364901454.000000ns
   System Clock:                    1.000000GHz
   Transistor Latency:              0ns
   Runtime:                         10932 cycles
   Runtime:                         0.000001 seconds
   Stalls:                          1 cycles
       Load Only:                   0 cycles
       Store Only:                  1 cycles
       Compute Only:                0 cycles
       Compute & Store:             0 cycles
       Load & Store:                0 cycles
       Load & Compute:              0 cycles
       Load & Compute & Store:      0 cycles
   Executed Nodes:                  10930 cycles
       Load Only:                   0 cycles
       Store Only:                  4 cycles
       Compute Only:                1 cycles
       Compute & Store:             21 cycles
       Load & Store:                0 cycles
       Load & Compute:              6 cycles
       Load & Compute & Store:      10898 cycles

   ========= Runtime FU's ========= (Max | Avg) ===
   Counter FU's:                      32 | 0.046838
   Integer Add/Sub FU's:               0 | 0.000000
   Integer Mul/Div FU's:               0 | 0.000000
   Integer Shifter FU's:               0 | 0.000000
   Integer Bitwise FU's:               1 | 0.000091
   Floating Point Float Add/Sub:       0 | 0.000000
   Floating Point Double Add/Sub:      0 | 0.000000
   Floating Point Float Mul/Div:      34 | 0.044252
   Floating Point Double Mul/Div:      0 | 0.000000
   0 Cycle Compare FU's:             102 | 0.046945
   GEP Instruction FU's:              96 | 0.046835
   Type Conversion FU's:               7 | 0.006782

   ========= Static FU's ==========================
   Counter FU's:                    0
   Integer Add/Sub FU's:            0
   Integer Mul/Div FU's:            0
   Integer Shifter FU's:            0
   Integer Bitwise FU's:            0
   Floating Point Float Add/Sub:    0
   Floating Point Double Add/Sub:   0
   Floating Point Float Mul/Div:    0
   Floating Point Double Mul/Div:   0
   0 Cycle Compare FU's:            0
   GEP Instruction FU's:            0
   Type Conversion FU's:            0
   Other:                           0

   ========= Pipeline Register Usage =============
   Total Number of Registers:       5641
   Max Register Usage Per Cycle:    137
   Avg Register Usage Per Cycle:    12.130992
   Avg Register Size (Bytes):       5.980606

   ========= Memory Configuration =================
   Cache Bus Ports:                 0
   Shared Cache Size:               0kB
   Local Bus Ports:                 0
   Private SPM Size:                256kB
   Private Read Ports:              0
   Private Write Ports:             0
   Private Read Bus Width:          64
   Private Write Bus Width:         64
       Memory Reads:                0
       Memory Writes:               0
   ========= Power Analysis ======================
   FU Leakage Power:                0.045377 mW 
   FU Dynamic Power:                0.142576 mW 
   FU Total Power:                  0.187953 mW 

   Registers Leakage Power:          0.005281 mW 
   Registers Dynamic Power:          0.015326 mW 
       Register Reads (Bits):        132616
       Register Writes (Bits):       133658
   Registers Total Power:            0.020607 mW

   SPM Leakage Power:               0.104100 mW
   SPM Read Dynamic Power:          1.997266 mW
   SPM Write Dynamic Power:         0.953321 mW
   SPM Total Power:                 3.054688 mW

   Cache Leakage Power:             0.000000 mW
   Cache Read Dynamic Power:        0.000000 mW
   Cache Write Dynamic Power:       0.000000 mW
   Cache Total Power:               0.000000 mW

   Accelerator Power:               0.208559 mW
   Accelerator Power (SPM):         3.263247 mW
   Accelerator Power (Cache):       0.208559 mW

   ========= Area Analysis =======================
   FU Area:                         5472.068359 um^2 (0.005472 mm^2)
   Register Area:                   429.271088 um^2 (0.000429 mm^2)
   SPM Area:                        2177.365505 um^2 (0.002177 mm^2)
   Cache Area:                      0.000000 um^2 (0.000000 mm^2)

   Accelerator Area:                5901.339355 um^2 (0.005901 mm^2)
   Accelerator Area (SPM):          8078.704860 um^2 (0.008079 mm^2)
   Accelerator Area (Cache):        5901.339355 um^2 (0.005901 mm^2)

   ========= SPM Resizing  =======================
   SPM Optimized Leakage Power:     0.004248 mW
   SPM Opt Area:                    178.524902 um^2

35535238750: system.acctest.elem_matrix3_dma: SRC:0x0000000082078780, DST:0x0000000024310020, LEN:65536
35547237750: system.acctest.elem_matrix3_dma: Transfer completed in 11.999 us
35549469500: system.acctest.elem_matrix0_dma: SRC:0x00000000821c8940, DST:0x0000000024010020, LEN:65536
35561649500: system.acctest.elem_matrix0_dma: Transfer completed in 12.18 us
35563743750: system.acctest.elem_matrix1_dma: SRC:0x0000000082048780, DST:0x0000000024100020, LEN:65536
35575705750: system.acctest.elem_matrix1_dma: Transfer completed in 11.962 us
********************************************************************************
system.acctest.elem_matrix0.compute
   ========= Performance Analysis =============
   Setup Time:                      7.484502seconds
   Simulation Time:                 335.010834seconds
   System Clock:                    1.000000GHz
   Transistor Latency:              1ns
   Runtime:                         10932 cycles
   Runtime:                         10.932000 us
   Stalls:                          1 cycles
   Executed Nodes:                  10930 cycles

********************************************************************************
   ========= Performance Analysis =================
   Setup Time:                      7484502262.000000ns
   Simulation Time:                 335010833970.000000ns
   System Clock:                    1.000000GHz
   Transistor Latency:              0ns
   Runtime:                         10932 cycles
   Runtime:                         0.000001 seconds
   Stalls:                          1 cycles
       Load Only:                   0 cycles
       Store Only:                  1 cycles
       Compute Only:                0 cycles
       Compute & Store:             0 cycles
       Load & Store:                0 cycles
       Load & Compute:              0 cycles
       Load & Compute & Store:      0 cycles
   Executed Nodes:                  10930 cycles
       Load Only:                   0 cycles
       Store Only:                  4 cycles
       Compute Only:                1 cycles
       Compute & Store:             21 cycles
       Load & Store:                0 cycles
       Load & Compute:              6 cycles
       Load & Compute & Store:      10898 cycles

   ========= Runtime FU's ========= (Max | Avg) ===
   Counter FU's:                      32 | 0.046838
   Integer Add/Sub FU's:               0 | 0.000000
   Integer Mul/Div FU's:               0 | 0.000000
   Integer Shifter FU's:               0 | 0.000000
   Integer Bitwise FU's:               1 | 0.000091
   Floating Point Float Add/Sub:       0 | 0.000000
   Floating Point Double Add/Sub:      0 | 0.000000
   Floating Point Float Mul/Div:      34 | 0.044252
   Floating Point Double Mul/Div:      0 | 0.000000
   0 Cycle Compare FU's:             102 | 0.046945
   GEP Instruction FU's:              96 | 0.046835
   Type Conversion FU's:               7 | 0.006782

   ========= Static FU's ==========================
   Counter FU's:                    0
   Integer Add/Sub FU's:            0
   Integer Mul/Div FU's:            0
   Integer Shifter FU's:            0
   Integer Bitwise FU's:            0
   Floating Point Float Add/Sub:    0
   Floating Point Double Add/Sub:   0
   Floating Point Float Mul/Div:    0
   Floating Point Double Mul/Div:   0
   0 Cycle Compare FU's:            0
   GEP Instruction FU's:            0
   Type Conversion FU's:            0
   Other:                           0

   ========= Pipeline Register Usage =============
   Total Number of Registers:       5641
   Max Register Usage Per Cycle:    137
   Avg Register Usage Per Cycle:    12.130992
   Avg Register Size (Bytes):       5.980606

   ========= Memory Configuration =================
   Cache Bus Ports:                 0
   Shared Cache Size:               0kB
   Local Bus Ports:                 0
   Private SPM Size:                256kB
   Private Read Ports:              0
   Private Write Ports:             0
   Private Read Bus Width:          64
   Private Write Bus Width:         64
       Memory Reads:                0
       Memory Writes:               0
   ========= Power Analysis ======================
   FU Leakage Power:                0.045377 mW 
   FU Dynamic Power:                0.142576 mW 
   FU Total Power:                  0.187953 mW 

   Registers Leakage Power:          0.005281 mW 
   Registers Dynamic Power:          0.015326 mW 
       Register Reads (Bits):        132616
       Register Writes (Bits):       133658
   Registers Total Power:            0.020607 mW

   SPM Leakage Power:               0.104100 mW
   SPM Read Dynamic Power:          4.784107 mW
   SPM Write Dynamic Power:         3.448926 mW
   SPM Total Power:                 8.337133 mW

   Cache Leakage Power:             0.000000 mW
   Cache Read Dynamic Power:        0.000000 mW
   Cache Write Dynamic Power:       0.000000 mW
   Cache Total Power:               0.000000 mW

   Accelerator Power:               0.208559 mW
   Accelerator Power (SPM):         8.545693 mW
   Accelerator Power (Cache):       0.208559 mW

   ========= Area Analysis =======================
   FU Area:                         5472.068359 um^2 (0.005472 mm^2)
   Register Area:                   429.271088 um^2 (0.000429 mm^2)
   SPM Area:                        2177.365505 um^2 (0.002177 mm^2)
   Cache Area:                      0.000000 um^2 (0.000000 mm^2)

   Accelerator Area:                5901.339355 um^2 (0.005901 mm^2)
   Accelerator Area (SPM):          8078.704860 um^2 (0.008079 mm^2)
   Accelerator Area (Cache):        5901.339355 um^2 (0.005901 mm^2)

   ========= SPM Resizing  =======================
   SPM Optimized Leakage Power:     0.004248 mW
   SPM Opt Area:                    178.524902 um^2

********************************************************************************
system.acctest.elem_matrix2.compute
   ========= Performance Analysis =============
   Setup Time:                      4.081264seconds
   Simulation Time:                 354.839727seconds
   System Clock:                    1.000000GHz
   Transistor Latency:              1ns
   Runtime:                         10932 cycles
   Runtime:                         10.932000 us
   Stalls:                          1 cycles
   Executed Nodes:                  10930 cycles

********************************************************************************
   ========= Performance Analysis =================
   Setup Time:                      4081263819.000000ns
   Simulation Time:                 354839726524.000000ns
   System Clock:                    1.000000GHz
   Transistor Latency:              0ns
   Runtime:                         10932 cycles
   Runtime:                         0.000001 seconds
   Stalls:                          1 cycles
       Load Only:                   0 cycles
       Store Only:                  1 cycles
       Compute Only:                0 cycles
       Compute & Store:             0 cycles
       Load & Store:                0 cycles
       Load & Compute:              0 cycles
       Load & Compute & Store:      0 cycles
   Executed Nodes:                  10930 cycles
       Load Only:                   0 cycles
       Store Only:                  4 cycles
       Compute Only:                1 cycles
       Compute & Store:             21 cycles
       Load & Store:                0 cycles
       Load & Compute:              6 cycles
       Load & Compute & Store:      10898 cycles

   ========= Runtime FU's ========= (Max | Avg) ===
   Counter FU's:                      32 | 0.046838
   Integer Add/Sub FU's:               0 | 0.000000
   Integer Mul/Div FU's:               0 | 0.000000
   Integer Shifter FU's:               0 | 0.000000
   Integer Bitwise FU's:               1 | 0.000091
   Floating Point Float Add/Sub:       0 | 0.000000
   Floating Point Double Add/Sub:      0 | 0.000000
   Floating Point Float Mul/Div:      34 | 0.044252
   Floating Point Double Mul/Div:      0 | 0.000000
   0 Cycle Compare FU's:             102 | 0.046945
   GEP Instruction FU's:              96 | 0.046835
   Type Conversion FU's:               7 | 0.006782

   ========= Static FU's ==========================
   Counter FU's:                    0
   Integer Add/Sub FU's:            0
   Integer Mul/Div FU's:            0
   Integer Shifter FU's:            0
   Integer Bitwise FU's:            0
   Floating Point Float Add/Sub:    0
   Floating Point Double Add/Sub:   0
   Floating Point Float Mul/Div:    0
   Floating Point Double Mul/Div:   0
   0 Cycle Compare FU's:            0
   GEP Instruction FU's:            0
   Type Conversion FU's:            0
   Other:                           0

   ========= Pipeline Register Usage =============
   Total Number of Registers:       5641
   Max Register Usage Per Cycle:    137
   Avg Register Usage Per Cycle:    12.130992
   Avg Register Size (Bytes):       5.980606

   ========= Memory Configuration =================
   Cache Bus Ports:                 0
   Shared Cache Size:               0kB
   Local Bus Ports:                 0
   Private SPM Size:                256kB
   Private Read Ports:              0
   Private Write Ports:             0
   Private Read Bus Width:          64
   Private Write Bus Width:         64
       Memory Reads:                0
       Memory Writes:               0
   ========= Power Analysis ======================
   FU Leakage Power:                0.045377 mW 
   FU Dynamic Power:                0.142576 mW 
   FU Total Power:                  0.187953 mW 

   Registers Leakage Power:          0.005281 mW 
   Registers Dynamic Power:          0.015326 mW 
       Register Reads (Bits):        132616
       Register Writes (Bits):       133658
   Registers Total Power:            0.020607 mW

   SPM Leakage Power:               0.104100 mW
   SPM Read Dynamic Power:          1.997266 mW
   SPM Write Dynamic Power:         0.953321 mW
   SPM Total Power:                 3.054688 mW

   Cache Leakage Power:             0.000000 mW
   Cache Read Dynamic Power:        0.000000 mW
   Cache Write Dynamic Power:       0.000000 mW
   Cache Total Power:               0.000000 mW

   Accelerator Power:               0.208559 mW
   Accelerator Power (SPM):         3.263247 mW
   Accelerator Power (Cache):       0.208559 mW

   ========= Area Analysis =======================
   FU Area:                         5472.068359 um^2 (0.005472 mm^2)
   Register Area:                   429.271088 um^2 (0.000429 mm^2)
   SPM Area:                        2177.365505 um^2 (0.002177 mm^2)
   Cache Area:                      0.000000 um^2 (0.000000 mm^2)

   Accelerator Area:                5901.339355 um^2 (0.005901 mm^2)
   Accelerator Area (SPM):          8078.704860 um^2 (0.008079 mm^2)
   Accelerator Area (Cache):        5901.339355 um^2 (0.005901 mm^2)

   ========= SPM Resizing  =======================
   SPM Optimized Leakage Power:     0.004248 mW
   SPM Opt Area:                    178.524902 um^2

********************************************************************************
system.acctest.elem_matrix3.compute
   ========= Performance Analysis =============
   Setup Time:                      3.199023seconds
   Simulation Time:                 339.816926seconds
   System Clock:                    1.000000GHz
   Transistor Latency:              1ns
   Runtime:                         10932 cycles
   Runtime:                         10.932000 us
   Stalls:                          1 cycles
   Executed Nodes:                  10930 cycles

********************************************************************************
   ========= Performance Analysis =================
   Setup Time:                      3199023191.000000ns
   Simulation Time:                 339816926156.000000ns
   System Clock:                    1.000000GHz
   Transistor Latency:              0ns
   Runtime:                         10932 cycles
   Runtime:                         0.000001 seconds
   Stalls:                          1 cycles
       Load Only:                   0 cycles
       Store Only:                  1 cycles
       Compute Only:                0 cycles
       Compute & Store:             0 cycles
       Load & Store:                0 cycles
       Load & Compute:              0 cycles
       Load & Compute & Store:      0 cycles
   Executed Nodes:                  10930 cycles
       Load Only:                   0 cycles
       Store Only:                  4 cycles
       Compute Only:                1 cycles
       Compute & Store:             21 cycles
       Load & Store:                0 cycles
       Load & Compute:              6 cycles
       Load & Compute & Store:      10898 cycles

   ========= Runtime FU's ========= (Max | Avg) ===
   Counter FU's:                      32 | 0.046838
   Integer Add/Sub FU's:               0 | 0.000000
   Integer Mul/Div FU's:               0 | 0.000000
   Integer Shifter FU's:               0 | 0.000000
   Integer Bitwise FU's:               1 | 0.000091
   Floating Point Float Add/Sub:       0 | 0.000000
   Floating Point Double Add/Sub:      0 | 0.000000
   Floating Point Float Mul/Div:      34 | 0.044252
   Floating Point Double Mul/Div:      0 | 0.000000
   0 Cycle Compare FU's:             102 | 0.046945
   GEP Instruction FU's:              96 | 0.046835
   Type Conversion FU's:               7 | 0.006782

   ========= Static FU's ==========================
   Counter FU's:                    0
   Integer Add/Sub FU's:            0
   Integer Mul/Div FU's:            0
   Integer Shifter FU's:            0
   Integer Bitwise FU's:            0
   Floating Point Float Add/Sub:    0
   Floating Point Double Add/Sub:   0
   Floating Point Float Mul/Div:    0
   Floating Point Double Mul/Div:   0
   0 Cycle Compare FU's:            0
   GEP Instruction FU's:            0
   Type Conversion FU's:            0
   Other:                           0

   ========= Pipeline Register Usage =============
   Total Number of Registers:       5641
   Max Register Usage Per Cycle:    137
   Avg Register Usage Per Cycle:    12.130992
   Avg Register Size (Bytes):       5.980606

   ========= Memory Configuration =================
   Cache Bus Ports:                 0
   Shared Cache Size:               0kB
   Local Bus Ports:                 0
   Private SPM Size:                256kB
   Private Read Ports:              0
   Private Write Ports:             0
   Private Read Bus Width:          64
   Private Write Bus Width:         64
       Memory Reads:                0
       Memory Writes:               0
   ========= Power Analysis ======================
   FU Leakage Power:                0.045377 mW 
   FU Dynamic Power:                0.142576 mW 
   FU Total Power:                  0.187953 mW 

   Registers Leakage Power:          0.005281 mW 
   Registers Dynamic Power:          0.015326 mW 
       Register Reads (Bits):        132616
       Register Writes (Bits):       133658
   Registers Total Power:            0.020607 mW

   SPM Leakage Power:               0.104100 mW
   SPM Read Dynamic Power:          1.997266 mW
   SPM Write Dynamic Power:         0.953321 mW
   SPM Total Power:                 3.054688 mW

   Cache Leakage Power:             0.000000 mW
   Cache Read Dynamic Power:        0.000000 mW
   Cache Write Dynamic Power:       0.000000 mW
   Cache Total Power:               0.000000 mW

   Accelerator Power:               0.208559 mW
   Accelerator Power (SPM):         3.263247 mW
   Accelerator Power (Cache):       0.208559 mW

   ========= Area Analysis =======================
   FU Area:                         5472.068359 um^2 (0.005472 mm^2)
   Register Area:                   429.271088 um^2 (0.000429 mm^2)
   SPM Area:                        2177.365505 um^2 (0.002177 mm^2)
   Cache Area:                      0.000000 um^2 (0.000000 mm^2)

   Accelerator Area:                5901.339355 um^2 (0.005901 mm^2)
   Accelerator Area (SPM):          8078.704860 um^2 (0.008079 mm^2)
   Accelerator Area (Cache):        5901.339355 um^2 (0.005901 mm^2)

   ========= SPM Resizing  =======================
   SPM Optimized Leakage Power:     0.004248 mW
   SPM Opt Area:                    178.524902 um^2

********************************************************************************
system.acctest.elem_matrix1.compute
   ========= Performance Analysis =============
   Setup Time:                      7.557887seconds
   Simulation Time:                 139.829664seconds
   System Clock:                    1.000000GHz
   Transistor Latency:              1ns
   Runtime:                         10932 cycles
   Runtime:                         10.932000 us
   Stalls:                          0 cycles
   Executed Nodes:                  10931 cycles

********************************************************************************
   ========= Performance Analysis =================
   Setup Time:                      7557887123.000000ns
   Simulation Time:                 139829663610.000000ns
   System Clock:                    1.000000GHz
   Transistor Latency:              0ns
   Runtime:                         10932 cycles
   Runtime:                         0.000001 seconds
   Stalls:                          0 cycles
       Load Only:                   0 cycles
       Store Only:                  0 cycles
       Compute Only:                0 cycles
       Compute & Store:             0 cycles
       Load & Store:                0 cycles
       Load & Compute:              0 cycles
       Load & Compute & Store:      0 cycles
   Executed Nodes:                  10931 cycles
       Load Only:                   0 cycles
       Store Only:                  5 cycles
       Compute Only:                1 cycles
       Compute & Store:             21 cycles
       Load & Store:                0 cycles
       Load & Compute:              7 cycles
       Load & Compute & Store:      10897 cycles

   ========= Runtime FU's ========= (Max | Avg) ===
   Counter FU's:                      32 | 0.046838
   Integer Add/Sub FU's:               0 | 0.000000
   Integer Mul/Div FU's:               0 | 0.000000
   Integer Shifter FU's:               0 | 0.000000
   Integer Bitwise FU's:               1 | 0.000091
   Floating Point Float Add/Sub:      34 | 0.044252
   Floating Point Double Add/Sub:      0 | 0.000000
   Floating Point Float Mul/Div:       0 | 0.000000
   Floating Point Double Mul/Div:      0 | 0.000000
   0 Cycle Compare FU's:             102 | 0.046974
   GEP Instruction FU's:              96 | 0.046835
   Type Conversion FU's:               7 | 0.006782

   ========= Static FU's ==========================
   Counter FU's:                    0
   Integer Add/Sub FU's:            0
   Integer Mul/Div FU's:            0
   Integer Shifter FU's:            0
   Integer Bitwise FU's:            0
   Floating Point Float Add/Sub:    0
   Floating Point Double Add/Sub:   0
   Floating Point Float Mul/Div:    0
   Floating Point Double Mul/Div:   0
   0 Cycle Compare FU's:            0
   GEP Instruction FU's:            0
   Type Conversion FU's:            0
   Other:                           0

   ========= Pipeline Register Usage =============
   Total Number of Registers:       5641
   Max Register Usage Per Cycle:    138
   Avg Register Usage Per Cycle:    12.130992
   Avg Register Size (Bytes):       5.980606

   ========= Memory Configuration =================
   Cache Bus Ports:                 0
   Shared Cache Size:               0kB
   Local Bus Ports:                 0
   Private SPM Size:                256kB
   Private Read Ports:              0
   Private Write Ports:             0
   Private Read Bus Width:          64
   Private Write Bus Width:         64
       Memory Reads:                0
       Memory Writes:               0
   ========= Power Analysis ======================
   FU Leakage Power:                0.519269 mW 
   FU Dynamic Power:                0.154621 mW 
   FU Total Power:                  0.673890 mW 

   Registers Leakage Power:          0.005281 mW 
   Registers Dynamic Power:          0.015326 mW 
       Register Reads (Bits):        132616
       Register Writes (Bits):       133658
   Registers Total Power:            0.020607 mW

   SPM Leakage Power:               0.104100 mW
   SPM Read Dynamic Power:          2.785289 mW
   SPM Write Dynamic Power:         2.044305 mW
   SPM Total Power:                 4.933694 mW

   Cache Leakage Power:             0.000000 mW
   Cache Read Dynamic Power:        0.000000 mW
   Cache Write Dynamic Power:       0.000000 mW
   Cache Total Power:               0.000000 mW

   Accelerator Power:               0.694497 mW
   Accelerator Power (SPM):         5.628191 mW
   Accelerator Power (Cache):       0.694497 mW

   ========= Area Analysis =======================
   FU Area:                         70212.562500 um^2 (0.070213 mm^2)
   Register Area:                   429.271088 um^2 (0.000429 mm^2)
   SPM Area:                        2177.365505 um^2 (0.002177 mm^2)
   Cache Area:                      0.000000 um^2 (0.000000 mm^2)

   Accelerator Area:                70641.835938 um^2 (0.070642 mm^2)
   Accelerator Area (SPM):          72819.201442 um^2 (0.072819 mm^2)
   Accelerator Area (Cache):        70641.835938 um^2 (0.070642 mm^2)

   ========= SPM Resizing  =======================
   SPM Optimized Leakage Power:     0.004248 mW
   SPM Opt Area:                    178.524902 um^2

35590815875: system.acctest.elem_matrix0_dma: SRC:0x0000000024030020, DST:0x00000000820e8780, LEN:65536
35597389875: system.acctest.elem_matrix0_dma: Transfer completed in 6.574 us
********************************************************************************
system.acctest.elem_matrix1.compute
   ========= Performance Analysis =============
   Setup Time:                      8.532694seconds
   Simulation Time:                 90.692026seconds
   System Clock:                    1.000000GHz
   Transistor Latency:              1ns
   Runtime:                         8316 cycles
   Runtime:                         8.316000 us
   Stalls:                          82 cycles
   Executed Nodes:                  8233 cycles

********************************************************************************
   ========= Performance Analysis =================
   Setup Time:                      8532694405.000001ns
   Simulation Time:                 90692025933.000000ns
   System Clock:                    1.000000GHz
   Transistor Latency:              0ns
   Runtime:                         8316 cycles
   Runtime:                         0.000001 seconds
   Stalls:                          82 cycles
       Load Only:                   0 cycles
       Store Only:                  77 cycles
       Compute Only:                0 cycles
       Compute & Store:             5 cycles
       Load & Store:                0 cycles
       Load & Compute:              0 cycles
       Load & Compute & Store:      0 cycles
   Executed Nodes:                  8233 cycles
       Load Only:                   0 cycles
       Store Only:                  11 cycles
       Compute Only:                1827 cycles
       Compute & Store:             3453 cycles
       Load & Store:                0 cycles
       Load & Compute:              774 cycles
       Load & Compute & Store:      2168 cycles

   ========= Runtime FU's ========= (Max | Avg) ===
   Counter FU's:                      32 | 0.061572
   Integer Add/Sub FU's:               0 | 0.000000
   Integer Mul/Div FU's:               0 | 0.000000
   Integer Shifter FU's:               0 | 0.000000
   Integer Bitwise FU's:               1 | 0.000120
   Floating Point Float Add/Sub:      80 | 0.302014
   Floating Point Double Add/Sub:      0 | 0.000000
   Floating Point Float Mul/Div:      35 | 0.056511
   Floating Point Double Mul/Div:      0 | 0.000000
   0 Cycle Compare FU's:              15 | 0.024828
   GEP Instruction FU's:              64 | 0.061568
   Type Conversion FU's:              66 | 0.120964

   ========= Static FU's ==========================
   Counter FU's:                    0
   Integer Add/Sub FU's:            0
   Integer Mul/Div FU's:            0
   Integer Shifter FU's:            0
   Integer Bitwise FU's:            0
   Floating Point Float Add/Sub:    0
   Floating Point Double Add/Sub:   0
   Floating Point Float Mul/Div:    0
   Floating Point Double Mul/Div:   0
   0 Cycle Compare FU's:            0
   GEP Instruction FU's:            0
   Type Conversion FU's:            0
   Other:                           0

   ========= Pipeline Register Usage =============
   Total Number of Registers:       5641
   Max Register Usage Per Cycle:    126
   Avg Register Usage Per Cycle:    27.706590
   Avg Register Size (Bytes):       5.993295

   ========= Memory Configuration =================
   Cache Bus Ports:                 0
   Shared Cache Size:               0kB
   Local Bus Ports:                 0
   Private SPM Size:                256kB
   Private Read Ports:              0
   Private Write Ports:             0
   Private Read Bus Width:          64
   Private Write Bus Width:         64
       Memory Reads:                0
       Memory Writes:               0
   ========= Power Analysis ======================
   FU Leakage Power:                1.265749 mW 
   FU Dynamic Power:                1.166708 mW 
   FU Total Power:                  2.432457 mW 

   Registers Leakage Power:          0.011908 mW 
   Registers Dynamic Power:          0.045645 mW 
       Register Reads (Bits):        230408
       Register Writes (Bits):       231961
   Registers Total Power:            0.057553 mW

   SPM Leakage Power:               0.104100 mW
   SPM Read Dynamic Power:          3.391598 mW
   SPM Write Dynamic Power:         2.457440 mW
   SPM Total Power:                 5.953139 mW

   Cache Leakage Power:             0.000000 mW
   Cache Read Dynamic Power:        0.000000 mW
   Cache Write Dynamic Power:       0.000000 mW
   Cache Total Power:               0.000000 mW

   Accelerator Power:               2.490010 mW
   Accelerator Power (SPM):         8.443149 mW
   Accelerator Power (Cache):       2.490010 mW

   ========= Area Analysis =======================
   FU Area:                         170559.593750 um^2 (0.170560 mm^2)
   Register Area:                   967.909180 um^2 (0.000968 mm^2)
   SPM Area:                        2177.365505 um^2 (0.002177 mm^2)
   Cache Area:                      0.000000 um^2 (0.000000 mm^2)

   Accelerator Area:                171527.500000 um^2 (0.171527 mm^2)
   Accelerator Area (SPM):          173704.865505 um^2 (0.173705 mm^2)
   Accelerator Area (Cache):        171527.500000 um^2 (0.171527 mm^2)

   ========= SPM Resizing  =======================
   SPM Optimized Leakage Power:     0.003887 mW
   SPM Opt Area:                    172.850411 um^2

35608008750: system.acctest.elem_matrix2_dma: SRC:0x0000000082068780, DST:0x0000000024200020, LEN:65536
35620002750: system.acctest.elem_matrix2_dma: Transfer completed in 11.994 us
35621995875: system.acctest.elem_matrix1_dma: SRC:0x0000000024100020, DST:0x0000000082138780, LEN:65536
35625411000: system.acctest.elem_matrix0_dma: SRC:0x0000000024320020, DST:0x0000000024000020, LEN:65536
35631876875: system.acctest.elem_matrix1_dma: Transfer completed in 9.881 us
********************************************************************************
system.acctest.elem_matrix2.compute
   ========= Performance Analysis =============
   Setup Time:                      8.155021seconds
   Simulation Time:                 94.463027seconds
   System Clock:                    1.000000GHz
   Transistor Latency:              1ns
   Runtime:                         10932 cycles
   Runtime:                         10.932000 us
   Stalls:                          0 cycles
   Executed Nodes:                  10931 cycles

********************************************************************************
   ========= Performance Analysis =================
   Setup Time:                      8155020947.000001ns
   Simulation Time:                 94463026818.000000ns
   System Clock:                    1.000000GHz
   Transistor Latency:              0ns
   Runtime:                         10932 cycles
   Runtime:                         0.000001 seconds
   Stalls:                          0 cycles
       Load Only:                   0 cycles
       Store Only:                  0 cycles
       Compute Only:                0 cycles
       Compute & Store:             0 cycles
       Load & Store:                0 cycles
       Load & Compute:              0 cycles
       Load & Compute & Store:      0 cycles
   Executed Nodes:                  10931 cycles
       Load Only:                   0 cycles
       Store Only:                  5 cycles
       Compute Only:                1 cycles
       Compute & Store:             21 cycles
       Load & Store:                0 cycles
       Load & Compute:              7 cycles
       Load & Compute & Store:      10897 cycles

   ========= Runtime FU's ========= (Max | Avg) ===
   Counter FU's:                      32 | 0.046838
   Integer Add/Sub FU's:               0 | 0.000000
   Integer Mul/Div FU's:               0 | 0.000000
   Integer Shifter FU's:               0 | 0.000000
   Integer Bitwise FU's:               1 | 0.000091
   Floating Point Float Add/Sub:      34 | 0.044252
   Floating Point Double Add/Sub:      0 | 0.000000
   Floating Point Float Mul/Div:       0 | 0.000000
   Floating Point Double Mul/Div:      0 | 0.000000
   0 Cycle Compare FU's:             102 | 0.046974
   GEP Instruction FU's:              96 | 0.046835
   Type Conversion FU's:               7 | 0.006782

   ========= Static FU's ==========================
   Counter FU's:                    0
   Integer Add/Sub FU's:            0
   Integer Mul/Div FU's:            0
   Integer Shifter FU's:            0
   Integer Bitwise FU's:            0
   Floating Point Float Add/Sub:    0
   Floating Point Double Add/Sub:   0
   Floating Point Float Mul/Div:    0
   Floating Point Double Mul/Div:   0
   0 Cycle Compare FU's:            0
   GEP Instruction FU's:            0
   Type Conversion FU's:            0
   Other:                           0

   ========= Pipeline Register Usage =============
   Total Number of Registers:       5641
   Max Register Usage Per Cycle:    138
   Avg Register Usage Per Cycle:    12.130992
   Avg Register Size (Bytes):       5.980606

   ========= Memory Configuration =================
   Cache Bus Ports:                 0
   Shared Cache Size:               0kB
   Local Bus Ports:                 0
   Private SPM Size:                256kB
   Private Read Ports:              0
   Private Write Ports:             0
   Private Read Bus Width:          64
   Private Write Bus Width:         64
       Memory Reads:                0
       Memory Writes:               0
   ========= Power Analysis ======================
   FU Leakage Power:                0.519269 mW 
   FU Dynamic Power:                0.154621 mW 
   FU Total Power:                  0.673890 mW 

   Registers Leakage Power:          0.005281 mW 
   Registers Dynamic Power:          0.015326 mW 
       Register Reads (Bits):        132616
       Register Writes (Bits):       133658
   Registers Total Power:            0.020607 mW

   SPM Leakage Power:               0.104100 mW
   SPM Read Dynamic Power:          2.785289 mW
   SPM Write Dynamic Power:         2.044305 mW
   SPM Total Power:                 4.933694 mW

   Cache Leakage Power:             0.000000 mW
   Cache Read Dynamic Power:        0.000000 mW
   Cache Write Dynamic Power:       0.000000 mW
   Cache Total Power:               0.000000 mW

   Accelerator Power:               0.694497 mW
   Accelerator Power (SPM):         5.628191 mW
   Accelerator Power (Cache):       0.694497 mW

   ========= Area Analysis =======================
   FU Area:                         70212.562500 um^2 (0.070213 mm^2)
   Register Area:                   429.271088 um^2 (0.000429 mm^2)
   SPM Area:                        2177.365505 um^2 (0.002177 mm^2)
   Cache Area:                      0.000000 um^2 (0.000000 mm^2)

   Accelerator Area:                70641.835938 um^2 (0.070642 mm^2)
   Accelerator Area (SPM):          72819.201442 um^2 (0.072819 mm^2)
   Accelerator Area (Cache):        70641.835938 um^2 (0.070642 mm^2)

   ========= SPM Resizing  =======================
   SPM Optimized Leakage Power:     0.004248 mW
   SPM Opt Area:                    178.524902 um^2

35635928000: system.acctest.elem_matrix1_dma: SRC:0x0000000024210020, DST:0x0000000024100020, LEN:65536
35638420000: system.acctest.elem_matrix0_dma: Transfer completed in 13.009 us
35647138000: system.acctest.elem_matrix1_dma: Transfer completed in 11.21 us
35652170875: system.acctest.elem_matrix0_dma: SRC:0x0000000082088780, DST:0x0000000024010020, LEN:65536
********************************************************************************
system.acctest.elem_matrix1.compute
   ========= Performance Analysis =============
   Setup Time:                      7.423038seconds
   Simulation Time:                 67.087621seconds
   System Clock:                    1.000000GHz
   Transistor Latency:              1ns
   Runtime:                         8344 cycles
   Runtime:                         8.344000 us
   Stalls:                          106 cycles
   Executed Nodes:                  8237 cycles

********************************************************************************
   ========= Performance Analysis =================
   Setup Time:                      7423037981.000000ns
   Simulation Time:                 67087621053.000008ns
   System Clock:                    1.000000GHz
   Transistor Latency:              0ns
   Runtime:                         8344 cycles
   Runtime:                         0.000001 seconds
   Stalls:                          106 cycles
       Load Only:                   0 cycles
       Store Only:                  101 cycles
       Compute Only:                0 cycles
       Compute & Store:             5 cycles
       Load & Store:                0 cycles
       Load & Compute:              0 cycles
       Load & Compute & Store:      0 cycles
   Executed Nodes:                  8237 cycles
       Load Only:                   0 cycles
       Store Only:                  11 cycles
       Compute Only:                2086 cycles
       Compute & Store:             3860 cycles
       Load & Store:                0 cycles
       Load & Compute:              519 cycles
       Load & Compute & Store:      1761 cycles

   ========= Runtime FU's ========= (Max | Avg) ===
   Counter FU's:                      32 | 0.061365
   Integer Add/Sub FU's:               0 | 0.000000
   Integer Mul/Div FU's:               0 | 0.000000
   Integer Shifter FU's:               0 | 0.000000
   Integer Bitwise FU's:               1 | 0.000120
   Floating Point Float Add/Sub:      76 | 0.476229
   Floating Point Double Add/Sub:      0 | 0.000000
   Floating Point Float Mul/Div:      53 | 0.193968
   Floating Point Double Mul/Div:      0 | 0.000000
   0 Cycle Compare FU's:              15 | 0.024744
   GEP Instruction FU's:              64 | 0.061361
   Type Conversion FU's:              60 | 0.132426

   ========= Static FU's ==========================
   Counter FU's:                    0
   Integer Add/Sub FU's:            0
   Integer Mul/Div FU's:            0
   Integer Shifter FU's:            0
   Integer Bitwise FU's:            0
   Floating Point Float Add/Sub:    0
   Floating Point Double Add/Sub:   0
   Floating Point Float Mul/Div:    0
   Floating Point Double Mul/Div:   0
   0 Cycle Compare FU's:            0
   GEP Instruction FU's:            0
   Type Conversion FU's:            0
   Other:                           0

   ========= Pipeline Register Usage =============
   Total Number of Registers:       5641
   Max Register Usage Per Cycle:    131
   Avg Register Usage Per Cycle:    31.540748
   Avg Register Size (Bytes):       5.745110

   ========= Memory Configuration =================
   Cache Bus Ports:                 0
   Shared Cache Size:               0kB
   Local Bus Ports:                 0
   Private SPM Size:                256kB
   Private Read Ports:              0
   Private Write Ports:             0
   Private Read Bus Width:          64
   Private Write Bus Width:         64
       Memory Reads:                0
       Memory Writes:               0
   ========= Power Analysis ======================
   FU Leakage Power:                1.204730 mW 
   FU Dynamic Power:                1.740443 mW 
   FU Total Power:                  2.945173 mW 

   Registers Leakage Power:          0.013106 mW 
   Registers Dynamic Power:          0.057551 mW 
       Register Reads (Bits):        263176
       Register Writes (Bits):       264729
   Registers Total Power:            0.070657 mW

   SPM Leakage Power:               0.104100 mW
   SPM Read Dynamic Power:          3.776796 mW
   SPM Write Dynamic Power:         2.880682 mW
   SPM Total Power:                 6.761578 mW

   Cache Leakage Power:             0.000000 mW
   Cache Read Dynamic Power:        0.000000 mW
   Cache Write Dynamic Power:       0.000000 mW
   Cache Total Power:               0.000000 mW

   Accelerator Power:               3.015830 mW
   Accelerator Power (SPM):         9.777408 mW
   Accelerator Power (Cache):       3.015830 mW

   ========= Area Analysis =======================
   FU Area:                         162305.218750 um^2 (0.162305 mm^2)
   Register Area:                   1065.283691 um^2 (0.001065 mm^2)
   SPM Area:                        2177.365505 um^2 (0.002177 mm^2)
   Cache Area:                      0.000000 um^2 (0.000000 mm^2)

   Accelerator Area:                163370.500000 um^2 (0.163371 mm^2)
   Accelerator Area (SPM):          165547.865505 um^2 (0.165548 mm^2)
   Accelerator Area (Cache):        163370.500000 um^2 (0.163371 mm^2)

   ========= SPM Resizing  =======================
   SPM Optimized Leakage Power:     0.004070 mW
   SPM Opt Area:                    175.836670 um^2

35664376875: system.acctest.elem_matrix0_dma: Transfer completed in 12.206 us
35676179500: system.acctest.elem_matrix1_dma: SRC:0x0000000082138780, DST:0x0000000024100020, LEN:65536
35688084500: system.acctest.elem_matrix1_dma: Transfer completed in 11.905 us
********************************************************************************
system.acctest.elem_matrix0.compute
   ========= Performance Analysis =============
   Setup Time:                      6.623999seconds
   Simulation Time:                 79.924113seconds
   System Clock:                    1.000000GHz
   Transistor Latency:              1ns
   Runtime:                         10932 cycles
   Runtime:                         10.932000 us
   Stalls:                          0 cycles
   Executed Nodes:                  10931 cycles

********************************************************************************
   ========= Performance Analysis =================
   Setup Time:                      6623999361.000000ns
   Simulation Time:                 79924112770.000000ns
   System Clock:                    1.000000GHz
   Transistor Latency:              0ns
   Runtime:                         10932 cycles
   Runtime:                         0.000001 seconds
   Stalls:                          0 cycles
       Load Only:                   0 cycles
       Store Only:                  0 cycles
       Compute Only:                0 cycles
       Compute & Store:             0 cycles
       Load & Store:                0 cycles
       Load & Compute:              0 cycles
       Load & Compute & Store:      0 cycles
   Executed Nodes:                  10931 cycles
       Load Only:                   0 cycles
       Store Only:                  5 cycles
       Compute Only:                1 cycles
       Compute & Store:             21 cycles
       Load & Store:                0 cycles
       Load & Compute:              7 cycles
       Load & Compute & Store:      10897 cycles

   ========= Runtime FU's ========= (Max | Avg) ===
   Counter FU's:                      32 | 0.046838
   Integer Add/Sub FU's:               0 | 0.000000
   Integer Mul/Div FU's:               0 | 0.000000
   Integer Shifter FU's:               0 | 0.000000
   Integer Bitwise FU's:               1 | 0.000091
   Floating Point Float Add/Sub:      34 | 0.044252
   Floating Point Double Add/Sub:      0 | 0.000000
   Floating Point Float Mul/Div:       0 | 0.000000
   Floating Point Double Mul/Div:      0 | 0.000000
   0 Cycle Compare FU's:             102 | 0.046974
   GEP Instruction FU's:              96 | 0.046835
   Type Conversion FU's:               7 | 0.006782

   ========= Static FU's ==========================
   Counter FU's:                    0
   Integer Add/Sub FU's:            0
   Integer Mul/Div FU's:            0
   Integer Shifter FU's:            0
   Integer Bitwise FU's:            0
   Floating Point Float Add/Sub:    0
   Floating Point Double Add/Sub:   0
   Floating Point Float Mul/Div:    0
   Floating Point Double Mul/Div:   0
   0 Cycle Compare FU's:            0
   GEP Instruction FU's:            0
   Type Conversion FU's:            0
   Other:                           0

   ========= Pipeline Register Usage =============
   Total Number of Registers:       5641
   Max Register Usage Per Cycle:    138
   Avg Register Usage Per Cycle:    12.130992
   Avg Register Size (Bytes):       5.980606

   ========= Memory Configuration =================
   Cache Bus Ports:                 0
   Shared Cache Size:               0kB
   Local Bus Ports:                 0
   Private SPM Size:                256kB
   Private Read Ports:              0
   Private Write Ports:             0
   Private Read Bus Width:          64
   Private Write Bus Width:         64
       Memory Reads:                0
       Memory Writes:               0
   ========= Power Analysis ======================
   FU Leakage Power:                0.519269 mW 
   FU Dynamic Power:                0.154621 mW 
   FU Total Power:                  0.673890 mW 

   Registers Leakage Power:          0.005281 mW 
   Registers Dynamic Power:          0.015326 mW 
       Register Reads (Bits):        132616
       Register Writes (Bits):       133658
   Registers Total Power:            0.020607 mW

   SPM Leakage Power:               0.104100 mW
   SPM Read Dynamic Power:          5.190014 mW
   SPM Write Dynamic Power:         3.846212 mW
   SPM Total Power:                 9.140327 mW

   Cache Leakage Power:             0.000000 mW
   Cache Read Dynamic Power:        0.000000 mW
   Cache Write Dynamic Power:       0.000000 mW
   Cache Total Power:               0.000000 mW

   Accelerator Power:               0.694497 mW
   Accelerator Power (SPM):         9.834824 mW
   Accelerator Power (Cache):       0.694497 mW

   ========= Area Analysis =======================
   FU Area:                         70212.562500 um^2 (0.070213 mm^2)
   Register Area:                   429.271088 um^2 (0.000429 mm^2)
   SPM Area:                        2177.365505 um^2 (0.002177 mm^2)
   Cache Area:                      0.000000 um^2 (0.000000 mm^2)

   Accelerator Area:                70641.835938 um^2 (0.070642 mm^2)
   Accelerator Area (SPM):          72819.201442 um^2 (0.072819 mm^2)
   Accelerator Area (Cache):        70641.835938 um^2 (0.070642 mm^2)

   ========= SPM Resizing  =======================
   SPM Optimized Leakage Power:     0.004248 mW
   SPM Opt Area:                    178.524902 um^2

********************************************************************************
system.acctest.elem_matrix0.compute
   ========= Performance Analysis =============
   Setup Time:                      5.228932seconds
   Simulation Time:                 149.153658seconds
   System Clock:                    1.000000GHz
   Transistor Latency:              1ns
   Runtime:                         8316 cycles
   Runtime:                         8.316000 us
   Stalls:                          82 cycles
   Executed Nodes:                  8233 cycles

********************************************************************************
   ========= Performance Analysis =================
   Setup Time:                      5228931903.000000ns
   Simulation Time:                 149153657759.000000ns
   System Clock:                    1.000000GHz
   Transistor Latency:              0ns
   Runtime:                         8316 cycles
   Runtime:                         0.000001 seconds
   Stalls:                          82 cycles
       Load Only:                   0 cycles
       Store Only:                  77 cycles
       Compute Only:                0 cycles
       Compute & Store:             5 cycles
       Load & Store:                0 cycles
       Load & Compute:              0 cycles
       Load & Compute & Store:      0 cycles
   Executed Nodes:                  8233 cycles
       Load Only:                   0 cycles
       Store Only:                  11 cycles
       Compute Only:                1827 cycles
       Compute & Store:             3453 cycles
       Load & Store:                0 cycles
       Load & Compute:              774 cycles
       Load & Compute & Store:      2168 cycles

   ========= Runtime FU's ========= (Max | Avg) ===
   Counter FU's:                      32 | 0.061572
   Integer Add/Sub FU's:               0 | 0.000000
   Integer Mul/Div FU's:               0 | 0.000000
   Integer Shifter FU's:               0 | 0.000000
   Integer Bitwise FU's:               1 | 0.000120
   Floating Point Float Add/Sub:      80 | 0.302014
   Floating Point Double Add/Sub:      0 | 0.000000
   Floating Point Float Mul/Div:      35 | 0.056511
   Floating Point Double Mul/Div:      0 | 0.000000
   0 Cycle Compare FU's:              15 | 0.024828
   GEP Instruction FU's:              64 | 0.061568
   Type Conversion FU's:              66 | 0.120964

   ========= Static FU's ==========================
   Counter FU's:                    0
   Integer Add/Sub FU's:            0
   Integer Mul/Div FU's:            0
   Integer Shifter FU's:            0
   Integer Bitwise FU's:            0
   Floating Point Float Add/Sub:    0
   Floating Point Double Add/Sub:   0
   Floating Point Float Mul/Div:    0
   Floating Point Double Mul/Div:   0
   0 Cycle Compare FU's:            0
   GEP Instruction FU's:            0
   Type Conversion FU's:            0
   Other:                           0

   ========= Pipeline Register Usage =============
   Total Number of Registers:       5641
   Max Register Usage Per Cycle:    126
   Avg Register Usage Per Cycle:    27.706590
   Avg Register Size (Bytes):       5.993295

   ========= Memory Configuration =================
   Cache Bus Ports:                 0
   Shared Cache Size:               0kB
   Local Bus Ports:                 0
   Private SPM Size:                256kB
   Private Read Ports:              0
   Private Write Ports:             0
   Private Read Bus Width:          64
   Private Write Bus Width:         64
       Memory Reads:                0
       Memory Writes:               0
   ========= Power Analysis ======================
   FU Leakage Power:                1.265749 mW 
   FU Dynamic Power:                1.166708 mW 
   FU Total Power:                  2.432457 mW 

   Registers Leakage Power:          0.011908 mW 
   Registers Dynamic Power:          0.045645 mW 
       Register Reads (Bits):        230408
       Register Writes (Bits):       231961
   Registers Total Power:            0.057553 mW

   SPM Leakage Power:               0.104100 mW
   SPM Read Dynamic Power:          5.394845 mW
   SPM Write Dynamic Power:         4.937352 mW
   SPM Total Power:                 10.436297 mW

   Cache Leakage Power:             0.000000 mW
   Cache Read Dynamic Power:        0.000000 mW
   Cache Write Dynamic Power:       0.000000 mW
   Cache Total Power:               0.000000 mW

   Accelerator Power:               2.490010 mW
   Accelerator Power (SPM):         12.926307 mW
   Accelerator Power (Cache):       2.490010 mW

   ========= Area Analysis =======================
   FU Area:                         170559.593750 um^2 (0.170560 mm^2)
   Register Area:                   967.909180 um^2 (0.000968 mm^2)
   SPM Area:                        2177.365505 um^2 (0.002177 mm^2)
   Cache Area:                      0.000000 um^2 (0.000000 mm^2)

   Accelerator Area:                171527.500000 um^2 (0.171527 mm^2)
   Accelerator Area (SPM):          173704.865505 um^2 (0.173705 mm^2)
   Accelerator Area (Cache):        171527.500000 um^2 (0.171527 mm^2)

   ========= SPM Resizing  =======================
   SPM Optimized Leakage Power:     0.003887 mW
   SPM Opt Area:                    172.850411 um^2

********************************************************************************
system.acctest.elem_matrix1.compute
   ========= Performance Analysis =============
   Setup Time:                      6.558960seconds
   Simulation Time:                 178.441813seconds
   System Clock:                    1.000000GHz
   Transistor Latency:              1ns
   Runtime:                         10932 cycles
   Runtime:                         10.932000 us
   Stalls:                          1 cycles
   Executed Nodes:                  10930 cycles

********************************************************************************
   ========= Performance Analysis =================
   Setup Time:                      6558959920.000000ns
   Simulation Time:                 178441812529.000000ns
   System Clock:                    1.000000GHz
   Transistor Latency:              0ns
   Runtime:                         10932 cycles
   Runtime:                         0.000001 seconds
   Stalls:                          1 cycles
       Load Only:                   0 cycles
       Store Only:                  1 cycles
       Compute Only:                0 cycles
       Compute & Store:             0 cycles
       Load & Store:                0 cycles
       Load & Compute:              0 cycles
       Load & Compute & Store:      0 cycles
   Executed Nodes:                  10930 cycles
       Load Only:                   0 cycles
       Store Only:                  4 cycles
[...]
   Floating Point Double Add/Sub:      0 | 0.000000
   Floating Point Float Mul/Div:      34 | 0.044252
   Floating Point Double Mul/Div:      0 | 0.000000
   0 Cycle Compare FU's:             102 | 0.046945
   GEP Instruction FU's:              96 | 0.046835
   Type Conversion FU's:               7 | 0.006782

   ========= Static FU's ==========================
   Counter FU's:                    0
   Integer Add/Sub FU's:            0
   Integer Mul/Div FU's:            0
   Integer Shifter FU's:            0
   Integer Bitwise FU's:            0
   Floating Point Float Add/Sub:    0
   Floating Point Double Add/Sub:   0
   Floating Point Float Mul/Div:    0
   Floating Point Double Mul/Div:   0
   0 Cycle Compare FU's:            0
   GEP Instruction FU's:            0
   Type Conversion FU's:            0
   Other:                           0

   ========= Pipeline Register Usage =============
   Total Number of Registers:       5641
   Max Register Usage Per Cycle:    137
   Avg Register Usage Per Cycle:    12.130992
   Avg Register Size (Bytes):       5.980606

   ========= Memory Configuration =================
   Cache Bus Ports:                 0
   Shared Cache Size:               0kB
   Local Bus Ports:                 0
   Private SPM Size:                256kB
   Private Read Ports:              0
   Private Write Ports:             0
   Private Read Bus Width:          64
   Private Write Bus Width:         64
       Memory Reads:                0
       Memory Writes:               0
   ========= Power Analysis ======================
   FU Leakage Power:                0.045377 mW 
   FU Dynamic Power:                0.142576 mW 
   FU Total Power:                  0.187953 mW 

   Registers Leakage Power:          0.005281 mW 
   Registers Dynamic Power:          0.015326 mW 
       Register Reads (Bits):        132616
       Register Writes (Bits):       133658
   Registers Total Power:            0.020607 mW

   SPM Leakage Power:               0.104100 mW
   SPM Read Dynamic Power:          14.779463 mW
   SPM Write Dynamic Power:         11.226688 mW
   SPM Total Power:                 26.110252 mW

   Cache Leakage Power:             0.000000 mW
   Cache Read Dynamic Power:        0.000000 mW
   Cache Write Dynamic Power:       0.000000 mW
   Cache Total Power:               0.000000 mW

   Accelerator Power:               0.208559 mW
   Accelerator Power (SPM):         26.318811 mW
   Accelerator Power (Cache):       0.208559 mW

   ========= Area Analysis =======================
   FU Area:                         5472.068359 um^2 (0.005472 mm^2)
   Register Area:                   429.271088 um^2 (0.000429 mm^2)
   SPM Area:                        2177.365505 um^2 (0.002177 mm^2)
   Cache Area:                      0.000000 um^2 (0.000000 mm^2)

   Accelerator Area:                5901.339355 um^2 (0.005901 mm^2)
   Accelerator Area (SPM):          8078.704860 um^2 (0.008079 mm^2)
   Accelerator Area (Cache):        5901.339355 um^2 (0.005901 mm^2)

   ========= SPM Resizing  =======================
   SPM Optimized Leakage Power:     0.004248 mW
   SPM Opt Area:                    178.524902 um^2

38784505875: system.acctest.elem_matrix0_dma: SRC:0x0000000024000020, DST:0x0000000082a13340, LEN:65536
38791285875: system.acctest.elem_matrix0_dma: Transfer completed in 6.78 us
38798863750: system.acctest.elem_matrix1_dma: SRC:0x0000000082963340, DST:0x0000000024100020, LEN:65536
38810852750: system.acctest.elem_matrix1_dma: Transfer completed in 11.989 us
********************************************************************************
system.acctest.elem_matrix1.compute
   ========= Performance Analysis =============
   Setup Time:                      6.885284seconds
   Simulation Time:                 101.350415seconds
   System Clock:                    1.000000GHz
   Transistor Latency:              1ns
   Runtime:                         10932 cycles
   Runtime:                         10.932000 us
   Stalls:                          0 cycles
   Executed Nodes:                  10931 cycles

********************************************************************************
   ========= Performance Analysis =================
   Setup Time:                      6885283918.000000ns
   Simulation Time:                 101350415480.000000ns
   System Clock:                    1.000000GHz
   Transistor Latency:              0ns
   Runtime:                         10932 cycles
   Runtime:                         0.000001 seconds
   Stalls:                          0 cycles
       Load Only:                   0 cycles
       Store Only:                  0 cycles
       Compute Only:                0 cycles
       Compute & Store:             0 cycles
       Load & Store:                0 cycles
       Load & Compute:              0 cycles
       Load & Compute & Store:      0 cycles
   Executed Nodes:                  10931 cycles
       Load Only:                   0 cycles
       Store Only:                  5 cycles
       Compute Only:                1 cycles
       Compute & Store:             21 cycles
       Load & Store:                0 cycles
       Load & Compute:              7 cycles
       Load & Compute & Store:      10897 cycles

   ========= Runtime FU's ========= (Max | Avg) ===
   Counter FU's:                      32 | 0.046838
   Integer Add/Sub FU's:               0 | 0.000000
   Integer Mul/Div FU's:               0 | 0.000000
   Integer Shifter FU's:               0 | 0.000000
   Integer Bitwise FU's:               1 | 0.000091
   Floating Point Float Add/Sub:      34 | 0.044252
   Floating Point Double Add/Sub:      0 | 0.000000
   Floating Point Float Mul/Div:       0 | 0.000000
   Floating Point Double Mul/Div:      0 | 0.000000
   0 Cycle Compare FU's:             102 | 0.046974
   GEP Instruction FU's:              96 | 0.046835
   Type Conversion FU's:               7 | 0.006782

   ========= Static FU's ==========================
   Counter FU's:                    0
   Integer Add/Sub FU's:            0
   Integer Mul/Div FU's:            0
   Integer Shifter FU's:            0
   Integer Bitwise FU's:            0
   Floating Point Float Add/Sub:    0
   Floating Point Double Add/Sub:   0
   Floating Point Float Mul/Div:    0
   Floating Point Double Mul/Div:   0
   0 Cycle Compare FU's:            0
   GEP Instruction FU's:            0
   Type Conversion FU's:            0
   Other:                           0

   ========= Pipeline Register Usage =============
   Total Number of Registers:       5641
   Max Register Usage Per Cycle:    138
   Avg Register Usage Per Cycle:    12.130992
   Avg Register Size (Bytes):       5.980606

   ========= Memory Configuration =================
   Cache Bus Ports:                 0
   Shared Cache Size:               0kB
   Local Bus Ports:                 0
   Private SPM Size:                256kB
   Private Read Ports:              0
   Private Write Ports:             0
   Private Read Bus Width:          64
   Private Write Bus Width:         64
       Memory Reads:                0
       Memory Writes:               0
   ========= Power Analysis ======================
   FU Leakage Power:                0.519269 mW 
   FU Dynamic Power:                0.154621 mW 
   FU Total Power:                  0.673890 mW 

   Registers Leakage Power:          0.005281 mW 
   Registers Dynamic Power:          0.015326 mW 
       Register Reads (Bits):        132616
       Register Writes (Bits):       133658
   Registers Total Power:            0.020607 mW

   SPM Leakage Power:               0.104100 mW
   SPM Read Dynamic Power:          14.979052 mW
   SPM Write Dynamic Power:         11.337414 mW
   SPM Total Power:                 26.420566 mW

   Cache Leakage Power:             0.000000 mW
   Cache Read Dynamic Power:        0.000000 mW
   Cache Write Dynamic Power:       0.000000 mW
   Cache Total Power:               0.000000 mW

   Accelerator Power:               0.694497 mW
   Accelerator Power (SPM):         27.115063 mW
   Accelerator Power (Cache):       0.694497 mW

   ========= Area Analysis =======================
   FU Area:                         70212.562500 um^2 (0.070213 mm^2)
   Register Area:                   429.271088 um^2 (0.000429 mm^2)
   SPM Area:                        2177.365505 um^2 (0.002177 mm^2)
   Cache Area:                      0.000000 um^2 (0.000000 mm^2)

   Accelerator Area:                70641.835938 um^2 (0.070642 mm^2)
   Accelerator Area (SPM):          72819.201442 um^2 (0.072819 mm^2)
   Accelerator Area (Cache):        70641.835938 um^2 (0.070642 mm^2)

   ========= SPM Resizing  =======================
   SPM Optimized Leakage Power:     0.004248 mW
   SPM Opt Area:                    178.524902 um^2

38824293750: system.acctest.elem_matrix0_dma: SRC:0x0000000024110020, DST:0x0000000024000020, LEN:65536
38834554750: system.acctest.elem_matrix0_dma: Transfer completed in 10.261 us
********************************************************************************
system.acctest.elem_matrix0.compute
   ========= Performance Analysis =============
   Setup Time:                      6.863363seconds
   Simulation Time:                 68.616792seconds
   System Clock:                    1.000000GHz
   Transistor Latency:              1ns
   Runtime:                         8344 cycles
   Runtime:                         8.344000 us
   Stalls:                          106 cycles
   Executed Nodes:                  8237 cycles

********************************************************************************
   ========= Performance Analysis =================
   Setup Time:                      6863362687.000000ns
   Simulation Time:                 68616791734.000000ns
   System Clock:                    1.000000GHz
   Transistor Latency:              0ns
   Runtime:                         8344 cycles
   Runtime:                         0.000001 seconds
   Stalls:                          106 cycles
       Load Only:                   0 cycles
       Store Only:                  101 cycles
       Compute Only:                0 cycles
       Compute & Store:             5 cycles
       Load & Store:                0 cycles
       Load & Compute:              0 cycles
       Load & Compute & Store:      0 cycles
   Executed Nodes:                  8237 cycles
       Load Only:                   0 cycles
       Store Only:                  11 cycles
       Compute Only:                2086 cycles
       Compute & Store:             3860 cycles
       Load & Store:                0 cycles
       Load & Compute:              519 cycles
       Load & Compute & Store:      1761 cycles

   ========= Runtime FU's ========= (Max | Avg) ===
   Counter FU's:                      32 | 0.061365
   Integer Add/Sub FU's:               0 | 0.000000
   Integer Mul/Div FU's:               0 | 0.000000
   Integer Shifter FU's:               0 | 0.000000
   Integer Bitwise FU's:               1 | 0.000120
   Floating Point Float Add/Sub:      76 | 0.476229
   Floating Point Double Add/Sub:      0 | 0.000000
   Floating Point Float Mul/Div:      53 | 0.193968
   Floating Point Double Mul/Div:      0 | 0.000000
   0 Cycle Compare FU's:              15 | 0.024744
   GEP Instruction FU's:              64 | 0.061361
   Type Conversion FU's:              60 | 0.132426

   ========= Static FU's ==========================
   Counter FU's:                    0
   Integer Add/Sub FU's:            0
   Integer Mul/Div FU's:            0
   Integer Shifter FU's:            0
   Integer Bitwise FU's:            0
   Floating Point Float Add/Sub:    0
   Floating Point Double Add/Sub:   0
   Floating Point Float Mul/Div:    0
   Floating Point Double Mul/Div:   0
   0 Cycle Compare FU's:            0
   GEP Instruction FU's:            0
   Type Conversion FU's:            0
   Other:                           0

   ========= Pipeline Register Usage =============
   Total Number of Registers:       5641
   Max Register Usage Per Cycle:    131
   Avg Register Usage Per Cycle:    31.540748
   Avg Register Size (Bytes):       5.745110

   ========= Memory Configuration =================
   Cache Bus Ports:                 0
   Shared Cache Size:               0kB
   Local Bus Ports:                 0
   Private SPM Size:                256kB
   Private Read Ports:              0
   Private Write Ports:             0
   Private Read Bus Width:          64
   Private Write Bus Width:         64
       Memory Reads:                0
       Memory Writes:               0
   ========= Power Analysis ======================
   FU Leakage Power:                1.204730 mW 
   FU Dynamic Power:                1.740443 mW 
   FU Total Power:                  2.945173 mW 

   Registers Leakage Power:          0.013106 mW 
   Registers Dynamic Power:          0.057551 mW 
       Register Reads (Bits):        263176
       Register Writes (Bits):       264729
   Registers Total Power:            0.070657 mW

   SPM Leakage Power:               0.104100 mW
   SPM Read Dynamic Power:          17.955603 mW
   SPM Write Dynamic Power:         14.553875 mW
   SPM Total Power:                 32.613579 mW

   Cache Leakage Power:             0.000000 mW
   Cache Read Dynamic Power:        0.000000 mW
   Cache Write Dynamic Power:       0.000000 mW
   Cache Total Power:               0.000000 mW

   Accelerator Power:               3.015830 mW
   Accelerator Power (SPM):         35.629409 mW
   Accelerator Power (Cache):       3.015830 mW

   ========= Area Analysis =======================
   FU Area:                         162305.218750 um^2 (0.162305 mm^2)
   Register Area:                   1065.283691 um^2 (0.001065 mm^2)
   SPM Area:                        2177.365505 um^2 (0.002177 mm^2)
   Cache Area:                      0.000000 um^2 (0.000000 mm^2)

   Accelerator Area:                163370.500000 um^2 (0.163371 mm^2)
   Accelerator Area (SPM):          165547.865505 um^2 (0.165548 mm^2)
   Accelerator Area (Cache):        163370.500000 um^2 (0.163371 mm^2)

   ========= SPM Resizing  =======================
   SPM Optimized Leakage Power:     0.004070 mW
   SPM Opt Area:                    175.836670 um^2

38858071625: system.acctest.elem_matrix0_dma: SRC:0x0000000082a13340, DST:0x0000000024000020, LEN:65536
38870018625: system.acctest.elem_matrix0_dma: Transfer completed in 11.947 us
********************************************************************************
system.acctest.elem_matrix0.compute
   ========= Performance Analysis =============
   Setup Time:                      5.907504seconds
   Simulation Time:                 73.817890seconds
   System Clock:                    1.000000GHz
   Transistor Latency:              1ns
   Runtime:                         10932 cycles
   Runtime:                         10.932000 us
   Stalls:                          1 cycles
   Executed Nodes:                  10930 cycles

********************************************************************************
   ========= Performance Analysis =================
   Setup Time:                      5907504483.000000ns
   Simulation Time:                 73817889624.000000ns
   System Clock:                    1.000000GHz
   Transistor Latency:              0ns
   Runtime:                         10932 cycles
   Runtime:                         0.000001 seconds
   Stalls:                          1 cycles
       Load Only:                   0 cycles
       Store Only:                  1 cycles
       Compute Only:                0 cycles
       Compute & Store:             0 cycles
       Load & Store:                0 cycles
       Load & Compute:              0 cycles
       Load & Compute & Store:      0 cycles
   Executed Nodes:                  10930 cycles
       Load Only:                   0 cycles
       Store Only:                  4 cycles
       Compute Only:                1 cycles
       Compute & Store:             21 cycles
       Load & Store:                0 cycles
       Load & Compute:              6 cycles
       Load & Compute & Store:      10898 cycles

   ========= Runtime FU's ========= (Max | Avg) ===
   Counter FU's:                      32 | 0.046838
   Integer Add/Sub FU's:               0 | 0.000000
   Integer Mul/Div FU's:               0 | 0.000000
   Integer Shifter FU's:               0 | 0.000000
   Integer Bitwise FU's:               1 | 0.000091
   Floating Point Float Add/Sub:       0 | 0.000000
   Floating Point Double Add/Sub:      0 | 0.000000
   Floating Point Float Mul/Div:      34 | 0.044252
   Floating Point Double Mul/Div:      0 | 0.000000
   0 Cycle Compare FU's:             102 | 0.046945
   GEP Instruction FU's:              96 | 0.046835
   Type Conversion FU's:               7 | 0.006782

   ========= Static FU's ==========================
   Counter FU's:                    0
   Integer Add/Sub FU's:            0
   Integer Mul/Div FU's:            0
   Integer Shifter FU's:            0
   Integer Bitwise FU's:            0
   Floating Point Float Add/Sub:    0
   Floating Point Double Add/Sub:   0
   Floating Point Float Mul/Div:    0
   Floating Point Double Mul/Div:   0
   0 Cycle Compare FU's:            0
   GEP Instruction FU's:            0
   Type Conversion FU's:            0
   Other:                           0

   ========= Pipeline Register Usage =============
   Total Number of Registers:       5641
   Max Register Usage Per Cycle:    137
   Avg Register Usage Per Cycle:    12.130992
   Avg Register Size (Bytes):       5.980606

   ========= Memory Configuration =================
   Cache Bus Ports:                 0
   Shared Cache Size:               0kB
   Local Bus Ports:                 0
   Private SPM Size:                256kB
   Private Read Ports:              0
   Private Write Ports:             0
   Private Read Bus Width:          64
   Private Write Bus Width:         64
       Memory Reads:                0
       Memory Writes:               0
   ========= Power Analysis ======================
   FU Leakage Power:                0.045377 mW 
   FU Dynamic Power:                0.142576 mW 
   FU Total Power:                  0.187953 mW 

   Registers Leakage Power:          0.005281 mW 
   Registers Dynamic Power:          0.015326 mW 
       Register Reads (Bits):        132616
       Register Writes (Bits):       133658
   Registers Total Power:            0.020607 mW

   SPM Leakage Power:               0.104100 mW
   SPM Read Dynamic Power:          18.054372 mW
   SPM Write Dynamic Power:         13.832663 mW
   SPM Total Power:                 31.991135 mW

   Cache Leakage Power:             0.000000 mW
   Cache Read Dynamic Power:        0.000000 mW
   Cache Write Dynamic Power:       0.000000 mW
   Cache Total Power:               0.000000 mW

   Accelerator Power:               0.208559 mW
   Accelerator Power (SPM):         32.199695 mW
   Accelerator Power (Cache):       0.208559 mW

   ========= Area Analysis =======================
   FU Area:                         5472.068359 um^2 (0.005472 mm^2)
   Register Area:                   429.271088 um^2 (0.000429 mm^2)
   SPM Area:                        2177.365505 um^2 (0.002177 mm^2)
   Cache Area:                      0.000000 um^2 (0.000000 mm^2)

   Accelerator Area:                5901.339355 um^2 (0.005901 mm^2)
   Accelerator Area (SPM):          8078.704860 um^2 (0.008079 mm^2)
   Accelerator Area (Cache):        5901.339355 um^2 (0.005901 mm^2)

   ========= SPM Resizing  =======================
   SPM Optimized Leakage Power:     0.004248 mW
   SPM Opt Area:                    178.524902 um^2

38895310875: system.acctest.elem_matrix0_dma: SRC:0x0000000024020020, DST:0x0000000082a33340, LEN:65536
38901604875: system.acctest.elem_matrix0_dma: Transfer completed in 6.294 us
Exiting @ tick 274852998750 because m5_exit instruction encountered
