gem5 Simulator System.  http://gem5.org
gem5 is copyrighted software; use the --copyright option for details.

gem5 compiled Jul 30 2023 11:55:34
gem5 started Jul 30 2023 12:23:38
gem5 executing on node4x10a.cs.rochester.edu, pid 48170
command line: /u/sgupta45/gem5-SALAM/build/ARM/gem5_bus.opt --debug-flags=HWACC,CommInterface,LLVMInterface,StreamDma,NoncoherentDma,TickTimer,SchedulerStats --outdir=BM_ARM_OUT/comb_pred_3_new/canny_1_deblur_1_gru_0_harris_0_lstm_1_ELF_MEM_PRED_NO_PRED_dm_false configs/SALAM/scheduler.py --mem-size=4GB --mem-type=LPDDR5_6400_1x16_BG_BL32 --kernel=/u/sgupta45/gem5-SALAM/benchmarks/scheduler/sw/bin_comb_pred_3/canny_1_deblur_1_gru_0_harris_0_lstm_1_ELF_MEM_PRED_NO_PRED_dm_false.elf --vans-config-path=/u/sgupta45/VANS/config --disk-image=/u/sgupta45/gem5-SALAM/baremetal/common/fake.iso --machine-type=VExpress_GEM5_V1 --dtb-file=none --bare-metal --cpu-type=ex5_LITTLE --cpu-clock=1.6GHz --accpath=/u/sgupta45/gem5-SALAM/benchmarks --caches --cacheline_size=64 --l1d_size=32kB --l1d_assoc=4 --l1i_size=32kB --l1i_assoc=2

info: Standard input is not a terminal, disabling listeners.
Global frequency set at 1000000000000 ticks per second
Cycle Counts Loaded!
Cycle Counts Loaded!
Cycle Counts Loaded!
Cycle Counts Loaded!
Cycle Counts Loaded!
Cycle Counts Loaded!
Cycle Counts Loaded!
Cycle Counts Loaded!
Cycle Counts Loaded!
Cycle Counts Loaded!
Cycle Counts Loaded!
**** REAL SIMULATION ****
3711860625: global: Timer #4 started at tick 3711860625
3712163750: global: Timer #4 stopped at tick 3712163750. Duration: 303125
3712182500: global: Timer #5 started at tick 3712182500
3712290000: global: Timer #5 stopped at tick 3712290000. Duration: 107500
3713365625: global: Timer #2 started at tick 3713365625
3713889375: global: Timer #2 stopped at tick 3713889375. Duration: 523750
3717749375: global: Timer #4 started at tick 3717749375
3717780625: global: Timer #4 stopped at tick 3717780625. Duration: 31250
3717796250: global: Timer #5 started at tick 3717796250
3717811250: global: Timer #5 stopped at tick 3717811250. Duration: 15000
3718147500: global: Timer #2 started at tick 3718147500
3718260625: global: Timer #2 stopped at tick 3718260625. Duration: 113125
3724400625: global: Timer #4 started at tick 3724400625
3724509375: global: Timer #4 stopped at tick 3724509375. Duration: 108750
3724525000: global: Timer #5 started at tick 3724525000
3724540000: global: Timer #5 stopped at tick 3724540000. Duration: 15000
3724890625: global: Timer #2 started at tick 3724890625
3724948750: global: Timer #2 stopped at tick 3724948750. Duration: 58125
3774980875: system.acctest.elem_matrix0_dma: SRC:0x00000000822f0bc0, DST:0x0000000024000020, LEN:65536
3780234500: system.acctest.isp0_dma: SRC:0x000000008210e780, DST:0x0000000027000020, LEN:16900
3780694375: global: Number of accelerators running = 2
3783758500: system.acctest.isp0_dma: Transfer completed in 3.524 us
3784463750: global: Timer #0 started at tick 3784463750
3785934375: global: Timer #1 started at tick 3785934375
3786181875: global: Timer #1 stopped at tick 3786181875. Duration: 247500
3787415875: system.acctest.elem_matrix0_dma: Transfer completed in 12.435 us
3788463750: global: Timer #0 stopped at tick 3788463750. Duration: 4000000
3788525625: global: Number of accelerators running = 2
3788860625: global: Timer #0 started at tick 3788860625
3789477500: global: Timer #1 started at tick 3789477500
3789499375: global: Timer #1 stopped at tick 3789499375. Duration: 21875
3804051625: system.acctest.elem_matrix0_dma: SRC:0x00000000821b0a00, DST:0x0000000024010020, LEN:65536
3804371875: global: Timer #0 stopped at tick 3804371875. Duration: 15511250
3804388125: global: Number of accelerators running = 2
3816041625: system.acctest.elem_matrix0_dma: Transfer completed in 11.99 us
3816162500: global: Timer #0 started at tick 3816162500
3816683750: global: Timer #1 started at tick 3816683750
3816700625: global: Timer #1 stopped at tick 3816700625. Duration: 16875
3818583125: global: Timer #0 stopped at tick 3818583125. Duration: 2420625
3818599375: global: Number of accelerators running = 2
********************************************************************************
system.acctest.isp0.compute
   ========= Performance Analysis =============
   Setup Time:                      0.147729seconds
   Simulation Time:                 396.5seconds
   System Clock:                    1GHz
   Transistor Latency:              1ns
   Runtime:                         34882 cycles
   Runtime:                         34.882 us
   Stalls:                          1 cycles
   Executed Nodes:                  34880 cycles

********************************************************************************
   ========= Performance Analysis =================
   Setup Time:                      1.47729e+08ns
   Simulation Time:                 3.965e+11ns
   System Clock:                    1GHz
   Transistor Latency:              0ns
   Runtime:                         34882 cycles
   Runtime:                         3.4882e-06 seconds
   Stalls:                          1 cycles
       Load Only:                   0 cycles
       Store Only:                  1 cycles
       Compute Only:                0 cycles
       Compute & Store:             0 cycles
       Load & Store:                0 cycles
       Load & Compute:              0 cycles
       Load & Compute & Store:      0 cycles
   Executed Nodes:                  34880 cycles
       Load Only:                   0 cycles
       Store Only:                  1 cycles
       Compute Only:                3453 cycles
       Compute & Store:             19014 cycles
       Load & Store:                0 cycles
       Load & Compute:              2467 cycles
       Load & Compute & Store:      9945 cycles

   ========= Runtime FU's ========= (Max | Avg) ===
   Counter FU's:                      10 | 0.118075
   Integer Add/Sub FU's:              76 | 0.082082
   Integer Mul/Div FU's:              11 | 0.043888
   Integer Shifter FU's:              42 | 0.055974
   Integer Bitwise FU's:               4 | 0.059443
   Floating Point Float Add/Sub:      53 | 0.116839
   Floating Point Double Add/Sub:      0 | 0.000000
   Floating Point Float Mul/Div:      76 | 0.625626
   Floating Point Double Mul/Div:      0 | 0.000000
   0 Cycle Compare FU's:              85 | 0.664984
   GEP Instruction FU's:              33 | 0.117424
   Type Conversion FU's:             110 | 0.379700

   ========= Static FU's ==========================
   Counter FU's:                    0
   Integer Add/Sub FU's:            0
   Integer Mul/Div FU's:            0
   Integer Shifter FU's:            0
   Integer Bitwise FU's:            0
   Floating Point Float Add/Sub:    0
   Floating Point Double Add/Sub:   0
   Floating Point Float Mul/Div:    0
   Floating Point Double Mul/Div:   0
   0 Cycle Compare FU's:            0
   GEP Instruction FU's:            0
   Type Conversion FU's:            0
   Other:                           0

   ========= Pipeline Register Usage =============
   Total Number of Registers:       1620
   Max Register Usage Per Cycle:    151
   Avg Register Usage Per Cycle:    58.744711
   Avg Register Size (Bytes):       5.073357

   ========= Memory Configuration =================
   Cache Bus Ports:                 0
   Shared Cache Size:               0kB
   Local Bus Ports:                 0
   Private SPM Size:                112kB
   Private Read Ports:              0
   Private Write Ports:             0
   Private Read Bus Width:          64
   Private Write Bus Width:         64
       Memory Reads:                0
       Memory Writes:               0
   ========= Power Analysis ======================
   FU Leakage Power:                1.637787 mW 
   FU Dynamic Power:                9.655087 mW 
   FU Total Power:                  11.292874 mW 

   Registers Leakage Power:          0.021654 mW 
   Registers Dynamic Power:          3.085961 mW 
       Register Reads (Bits):        2049133
       Register Writes (Bits):       2049168
   Registers Total Power:            3.107615 mW

   SPM Leakage Power:               0.061081 mW
   SPM Read Dynamic Power:          11.103730 mW
   SPM Write Dynamic Power:         7.385230 mW
   SPM Total Power:                 18.550041 mW

   Cache Leakage Power:             0.000000 mW
   Cache Read Dynamic Power:        0.000000 mW
   Cache Write Dynamic Power:       0.000000 mW
   Cache Total Power:               0.000000 mW

   Accelerator Power:               14.400490 mW
   Accelerator Power (SPM):         32.950531 mW
   Accelerator Power (Cache):       14.400490 mW

   ========= Area Analysis =======================
   FU Area:                         176023.796875 um^2 (0.176024 mm^2)
   Register Area:                   1760.064941 um^2 (0.001760 mm^2)
   SPM Area:                        2165.394891 um^2 (0.002165 mm^2)
   Cache Area:                      0.000000 um^2 (0.000000 mm^2)

   Accelerator Area:                177783.859375 um^2 (0.177784 mm^2)
   Accelerator Area (SPM):          179949.254266 um^2 (0.179949 mm^2)
   Accelerator Area (Cache):        177783.859375 um^2 (0.177784 mm^2)

   ========= SPM Resizing  =======================
   SPM Optimized Leakage Power:     0.005964 mW
   SPM Opt Area:                    422.108128 um^2

3822790625: global: Timer #0 started at tick 3822790625
3823310625: global: Timer #3 started at tick 3823310625
3823441875: global: Timer #4 started at tick 3823441875
3823650000: global: Timer #4 stopped at tick 3823650000. Duration: 208125
3823710625: global: Timer #5 started at tick 3823710625
3823859375: global: Timer #5 stopped at tick 3823859375. Duration: 148750
3824355000: global: Timer #3 stopped at tick 3824355000. Duration: 1044375
3824655625: global: Timer #2 started at tick 3824655625
3825287500: global: Timer #2 stopped at tick 3825287500. Duration: 631875
3825910000: global: DAG ID = 1
3825929375: global: Node ID = 0
3825947500: global: Node deadline difference = -229
3826009375: global: Predicted memory time / byte = 7.27596e-05 us/byte
3826027500: global: Predicted memory time = 1.22964 us
3826045625: global: Predicted memory time / byte = 7.27596e-05 us/byte
3826063750: global: Predicted memory time = 3.57628 us
3826081875: global: Predicted memory time / byte = 0.000257811 us/byte
3826143125: global: Predicted memory time = 4.357 us
3826161250: global: Predicted memory time / byte = 0 us/byte
3826179375: global: Predicted memory time = 0 us
3826197500: global: Predicted memory access size = 16900
3826215625: global: Predicted memory access size = 16900
3826278125: global: Predicted memory access size = 49152
3826296875: global: Predicted memory access size = 0
3827528750: system.acctest.grayscale0_dma: SRC:0x0000000027004224, DST:0x0000000025000020, LEN:49152
********************************************************************************
system.acctest.elem_matrix0.compute
   ========= Performance Analysis =============
   Setup Time:                      3.670794seconds
   Simulation Time:                 166.524090seconds
   System Clock:                    1.000000GHz
   Transistor Latency:              1ns
   Runtime:                         10932 cycles
   Runtime:                         10.932000 us
   Stalls:                          0 cycles
   Executed Nodes:                  10931 cycles

********************************************************************************
   ========= Performance Analysis =================
   Setup Time:                      3670794485.000000ns
   Simulation Time:                 166524089942.000000ns
   System Clock:                    1.000000GHz
   Transistor Latency:              0ns
   Runtime:                         10932 cycles
   Runtime:                         0.000001 seconds
   Stalls:                          0 cycles
       Load Only:                   0 cycles
       Store Only:                  0 cycles
       Compute Only:                0 cycles
       Compute & Store:             0 cycles
       Load & Store:                0 cycles
       Load & Compute:              0 cycles
       Load & Compute & Store:      0 cycles
   Executed Nodes:                  10931 cycles
       Load Only:                   0 cycles
       Store Only:                  5 cycles
       Compute Only:                1 cycles
       Compute & Store:             21 cycles
       Load & Store:                0 cycles
       Load & Compute:              7 cycles
       Load & Compute & Store:      10897 cycles

   ========= Runtime FU's ========= (Max | Avg) ===
   Counter FU's:                      32 | 0.046838
   Integer Add/Sub FU's:               0 | 0.000000
   Integer Mul/Div FU's:               0 | 0.000000
   Integer Shifter FU's:               0 | 0.000000
   Integer Bitwise FU's:               1 | 0.000091
   Floating Point Float Add/Sub:      34 | 0.044252
   Floating Point Double Add/Sub:      0 | 0.000000
   Floating Point Float Mul/Div:       0 | 0.000000
   Floating Point Double Mul/Div:      0 | 0.000000
   0 Cycle Compare FU's:             102 | 0.046974
   GEP Instruction FU's:              96 | 0.046835
   Type Conversion FU's:               7 | 0.006782

   ========= Static FU's ==========================
   Counter FU's:                    0
   Integer Add/Sub FU's:            0
   Integer Mul/Div FU's:            0
   Integer Shifter FU's:            0
   Integer Bitwise FU's:            0
   Floating Point Float Add/Sub:    0
   Floating Point Double Add/Sub:   0
   Floating Point Float Mul/Div:    0
   Floating Point Double Mul/Div:   0
   0 Cycle Compare FU's:            0
   GEP Instruction FU's:            0
   Type Conversion FU's:            0
   Other:                           0

   ========= Pipeline Register Usage =============
   Total Number of Registers:       5641
   Max Register Usage Per Cycle:    138
   Avg Register Usage Per Cycle:    12.130992
   Avg Register Size (Bytes):       5.980606

   ========= Memory Configuration =================
   Cache Bus Ports:                 0
   Shared Cache Size:               0kB
   Local Bus Ports:                 0
   Private SPM Size:                256kB
   Private Read Ports:              0
   Private Write Ports:             0
   Private Read Bus Width:          64
   Private Write Bus Width:         64
       Memory Reads:                0
       Memory Writes:               0
   ========= Power Analysis ======================
   FU Leakage Power:                0.519269 mW 
   FU Dynamic Power:                0.154621 mW 
   FU Total Power:                  0.673890 mW 

   Registers Leakage Power:          0.005281 mW 
   Registers Dynamic Power:          0.015326 mW 
       Register Reads (Bits):        132616
       Register Writes (Bits):       133658
   Registers Total Power:            0.020607 mW

   SPM Leakage Power:               0.104100 mW
   SPM Read Dynamic Power:          1.997266 mW
   SPM Write Dynamic Power:         0.953321 mW
   SPM Total Power:                 3.054688 mW

   Cache Leakage Power:             0.000000 mW
   Cache Read Dynamic Power:        0.000000 mW
   Cache Write Dynamic Power:       0.000000 mW
   Cache Total Power:               0.000000 mW

   Accelerator Power:               0.694497 mW
   Accelerator Power (SPM):         3.749184 mW
   Accelerator Power (Cache):       0.694497 mW

   ========= Area Analysis =======================
   FU Area:                         70212.562500 um^2 (0.070213 mm^2)
   Register Area:                   429.271088 um^2 (0.000429 mm^2)
   SPM Area:                        2177.365505 um^2 (0.002177 mm^2)
   Cache Area:                      0.000000 um^2 (0.000000 mm^2)

   Accelerator Area:                70641.835938 um^2 (0.070642 mm^2)
   Accelerator Area (SPM):          72819.201442 um^2 (0.072819 mm^2)
   Accelerator Area (Cache):        70641.835938 um^2 (0.070642 mm^2)

   ========= SPM Resizing  =======================
   SPM Optimized Leakage Power:     0.004248 mW
   SPM Opt Area:                    178.524902 um^2

3832528000: system.acctest.isp0_dma: SRC:0x0000000082018d40, DST:0x0000000027000020, LEN:16900
3832720000: global: Timer #0 stopped at tick 3832720000. Duration: 9929375
3832736250: global: Number of accelerators running = 3
3832890625: global: Timer #0 started at tick 3832890625
3833310000: global: Timer #3 started at tick 3833310000
3833427500: global: Timer #4 started at tick 3833427500
3833477500: global: Timer #4 stopped at tick 3833477500. Duration: 50000
3833495000: global: Timer #5 started at tick 3833495000
3833510000: global: Timer #5 stopped at tick 3833510000. Duration: 15000
3833760625: global: Timer #3 stopped at tick 3833760625. Duration: 450625
3833985000: global: Timer #3 started at tick 3833985000
3834047500: global: Timer #4 started at tick 3834047500
3834095625: global: Timer #4 stopped at tick 3834095625. Duration: 48125
3834108750: global: Timer #5 started at tick 3834108750
3834123750: global: Timer #5 stopped at tick 3834123750. Duration: 15000
3834536250: global: Timer #3 stopped at tick 3834536250. Duration: 551250
3834768750: global: Timer #3 started at tick 3834768750
3834802500: global: Timer #4 started at tick 3834802500
3834847500: global: Timer #4 stopped at tick 3834847500. Duration: 45000
3834860625: global: Timer #5 started at tick 3834860625
3834875625: global: Timer #5 stopped at tick 3834875625. Duration: 15000
3835141250: global: Timer #3 stopped at tick 3835141250. Duration: 372500
3835305000: global: Timer #3 started at tick 3835305000
3835338750: global: Timer #4 started at tick 3835338750
3835383750: global: Timer #4 stopped at tick 3835383750. Duration: 45000
3835396875: global: Timer #5 started at tick 3835396875
3835411875: global: Timer #5 stopped at tick 3835411875. Duration: 15000
3835653750: global: Timer #3 stopped at tick 3835653750. Duration: 348750
3835704375: global: Timer #2 started at tick 3835704375
3835754375: global: Timer #2 stopped at tick 3835754375. Duration: 50000
3835789375: global: Timer #2 started at tick 3835789375
3835843000: system.acctest.isp0_dma: Transfer completed in 3.315 us
3836013750: global: Timer #2 stopped at tick 3836013750. Duration: 224375
3836122500: global: Timer #4 started at tick 3836122500
3836304375: global: Timer #4 stopped at tick 3836304375. Duration: 181875
3836536250: global: Timer #2 started at tick 3836536250
3836611250: global: Timer #2 stopped at tick 3836611250. Duration: 75000
3836626250: global: Timer #4 started at tick 3836626250
3836678125: global: Timer #4 stopped at tick 3836678125. Duration: 51875
3836856250: global: Timer #2 started at tick 3836856250
3836916875: global: Timer #2 stopped at tick 3836916875. Duration: 60625
3836931875: global: Timer #4 started at tick 3836931875
3836969375: global: Timer #4 stopped at tick 3836969375. Duration: 37500
3837092750: system.acctest.grayscale0_dma: Transfer completed in 9.564 us
3850631625: system.acctest.elem_matrix0_dma: SRC:0x0000000024020020, DST:0x00000000821c0a00, LEN:65536
3851088750: global: Timer #0 stopped at tick 3851088750. Duration: 18198125
3851105000: global: Number of accelerators running = 3
3851258750: global: Timer #0 started at tick 3851258750
3851773125: global: Timer #1 started at tick 3851773125
3851790000: global: Timer #1 stopped at tick 3851790000. Duration: 16875
3853138750: global: Timer #0 stopped at tick 3853138750. Duration: 1880000
3853155000: global: Number of accelerators running = 3
3853451250: global: Timer #0 started at tick 3853451250
3853953750: global: Timer #1 started at tick 3853953750
3854023125: global: Timer #1 stopped at tick 3854023125. Duration: 69375
3855835625: global: Timer #0 stopped at tick 3855835625. Duration: 2384375
3855937500: global: Number of accelerators running = 3
3857189625: system.acctest.elem_matrix0_dma: Transfer completed in 6.558 us
3857330000: global: Timer #0 started at tick 3857330000
3857763125: global: Timer #1 started at tick 3857763125
3857880000: global: Timer #1 stopped at tick 3857880000. Duration: 116875
3858510000: global: DAG ID = 2
3858574375: global: Node ID = 0
3858649375: global: Node deadline difference = -3588
3858667500: global: Predicted memory time / byte = 7.27596e-05 us/byte
3858685625: global: Predicted memory time = 9.53674 us
3858705625: global: Predicted memory time / byte = 7.27596e-05 us/byte
3858723750: global: Predicted memory time = 4.76837 us
3858741875: global: Predicted memory time / byte = 0.000198891 us/byte
3858760000: global: Predicted memory time = 26.069 us
3858778125: global: Predicted memory time / byte = 0.000102142 us/byte
3858796250: global: Predicted memory time = 6.694 us
3858816250: global: Predicted memory access size = 131072
3858834375: global: Predicted memory access size = 131072
3858852500: global: Predicted memory access size = 65536
3858870625: global: Predicted memory access size = 65536
********************************************************************************
system.acctest.grayscale0.compute
   ========= Performance Analysis =============
   Setup Time:                      0.008948seconds
   Simulation Time:                 257.461517seconds
   System Clock:                    1.000000GHz
   Transistor Latency:              1ns
   Runtime:                         10263 cycles
   Runtime:                         10.263000 us
   Stalls:                          1 cycles
   Executed Nodes:                  10261 cycles

********************************************************************************
   ========= Performance Analysis =================
   Setup Time:                      8948269.000000ns
   Simulation Time:                 257461517242.000000ns
   System Clock:                    1.000000GHz
   Transistor Latency:              0ns
   Runtime:                         10263 cycles
   Runtime:                         0.000001 seconds
   Stalls:                          1 cycles
       Load Only:                   0 cycles
       Store Only:                  1 cycles
       Compute Only:                0 cycles
       Compute & Store:             0 cycles
       Load & Store:                0 cycles
       Load & Compute:              0 cycles
       Load & Compute & Store:      0 cycles
   Executed Nodes:                  10261 cycles
       Load Only:                   0 cycles
       Store Only:                  1 cycles
       Compute Only:                88 cycles
       Compute & Store:             344 cycles
       Load & Store:                0 cycles
       Load & Compute:              1981 cycles
       Load & Compute & Store:      7847 cycles

   ========= Runtime FU's ========= (Max | Avg) ===
   Counter FU's:                      24 | 0.199556
   Integer Add/Sub FU's:               0 | 0.000000
   Integer Mul/Div FU's:               8 | 0.199552
   Integer Shifter FU's:               0 | 0.000000
   Integer Bitwise FU's:               1 | 0.000097
   Floating Point Float Add/Sub:      49 | 0.114264
   Floating Point Double Add/Sub:      0 | 0.000000
   Floating Point Float Mul/Div:      42 | 0.114129
   Floating Point Double Mul/Div:      0 | 0.000000
   0 Cycle Compare FU's:               9 | 0.066626
   GEP Instruction FU's:              36 | 0.177452
   Type Conversion FU's:              76 | 0.401969

   ========= Static FU's ==========================
   Counter FU's:                    0
   Integer Add/Sub FU's:            0
   Integer Mul/Div FU's:            0
   Integer Shifter FU's:            0
   Integer Bitwise FU's:            0
   Floating Point Float Add/Sub:    0
   Floating Point Double Add/Sub:   0
   Floating Point Float Mul/Div:    0
   Floating Point Double Mul/Div:   0
   0 Cycle Compare FU's:            0
   GEP Instruction FU's:            0
   Type Conversion FU's:            0
   Other:                           0

   ========= Pipeline Register Usage =============
   Total Number of Registers:       235
   Max Register Usage Per Cycle:    90
   Avg Register Usage Per Cycle:    33.924291
   Avg Register Size (Bytes):       5.841147

   ========= Memory Configuration =================
   Cache Bus Ports:                 0
   Shared Cache Size:               0kB
   Local Bus Ports:                 0
   Private SPM Size:                176kB
   Private Read Ports:              0
   Private Write Ports:             0
   Private Read Bus Width:          64
   Private Write Bus Width:         64
       Memory Reads:                0
       Memory Writes:               0
   ========= Power Analysis ======================
   FU Leakage Power:                1.178269 mW 
   FU Dynamic Power:                0.617392 mW 
   FU Total Power:                  1.795662 mW 

   Registers Leakage Power:          0.014185 mW 
   Registers Dynamic Power:          0.101057 mW 
       Register Reads (Bits):        348165
       Register Writes (Bits):       348168
   Registers Total Power:            0.115242 mW

   SPM Leakage Power:               0.089881 mW
   SPM Read Dynamic Power:          6.997296 mW
   SPM Write Dynamic Power:         2.062375 mW
   SPM Total Power:                 9.149552 mW

   Cache Leakage Power:             0.000000 mW
   Cache Read Dynamic Power:        0.000000 mW
   Cache Write Dynamic Power:       0.000000 mW
   Cache Total Power:               0.000000 mW

   Accelerator Power:               1.910904 mW
   Accelerator Power (SPM):         11.060456 mW
   Accelerator Power (Cache):       1.910904 mW

   ========= Area Analysis =======================
   FU Area:                         143348.187500 um^2 (0.143348 mm^2)
   Register Area:                   1152.968140 um^2 (0.001153 mm^2)
   SPM Area:                        3573.642862 um^2 (0.003574 mm^2)
   Cache Area:                      0.000000 um^2 (0.000000 mm^2)

   Accelerator Area:                144501.156250 um^2 (0.144501 mm^2)
   Accelerator Area (SPM):          148074.799112 um^2 (0.148075 mm^2)
   Accelerator Area (Cache):        144501.156250 um^2 (0.144501 mm^2)

   ========= SPM Resizing  =======================
   SPM Optimized Leakage Power:     0.003633 mW
   SPM Opt Area:                    364.024374 um^2

3872578750: system.acctest.elem_matrix0_dma: SRC:0x0000000082130880, DST:0x0000000024000020, LEN:65536
3872790625: global: Timer #0 stopped at tick 3872790625. Duration: 15460625
3872806875: global: Number of accelerators running = 3
3873047500: global: Timer #0 started at tick 3873047500
3873378125: global: Timer #3 started at tick 3873378125
3873411250: global: Timer #4 started at tick 3873411250
3873546250: global: Timer #4 stopped at tick 3873546250. Duration: 135000
3873550000: global: Timer #5 started at tick 3873550000
3873555000: global: Timer #5 stopped at tick 3873555000. Duration: 5000
3873958750: global: Timer #3 stopped at tick 3873958750. Duration: 580625
3874710625: global: Timer #2 started at tick 3874710625
3874769375: global: Timer #2 stopped at tick 3874769375. Duration: 58750
3884645750: system.acctest.elem_matrix0_dma: Transfer completed in 12.067 us
********************************************************************************
system.acctest.isp0.compute
   ========= Performance Analysis =============
   Setup Time:                      0.468441seconds
   Simulation Time:                 592.124937seconds
   System Clock:                    1.000000GHz
   Transistor Latency:              1ns
   Runtime:                         34882 cycles
   Runtime:                         34.882000 us
   Stalls:                          1 cycles
   Executed Nodes:                  34880 cycles

********************************************************************************
   ========= Performance Analysis =================
   Setup Time:                      468441240.000000ns
   Simulation Time:                 592124937344.000000ns
   System Clock:                    1.000000GHz
   Transistor Latency:              0ns
   Runtime:                         34882 cycles
   Runtime:                         0.000003 seconds
   Stalls:                          1 cycles
       Load Only:                   0 cycles
       Store Only:                  1 cycles
       Compute Only:                0 cycles
       Compute & Store:             0 cycles
       Load & Store:                0 cycles
       Load & Compute:              0 cycles
       Load & Compute & Store:      0 cycles
   Executed Nodes:                  34880 cycles
       Load Only:                   0 cycles
       Store Only:                  1 cycles
       Compute Only:                3453 cycles
       Compute & Store:             19014 cycles
       Load & Store:                0 cycles
       Load & Compute:              2467 cycles
       Load & Compute & Store:      9945 cycles

   ========= Runtime FU's ========= (Max | Avg) ===
   Counter FU's:                      10 | 0.118075
   Integer Add/Sub FU's:              76 | 0.082082
   Integer Mul/Div FU's:              11 | 0.043888
   Integer Shifter FU's:              42 | 0.055974
   Integer Bitwise FU's:               4 | 0.059443
   Floating Point Float Add/Sub:      53 | 0.116839
   Floating Point Double Add/Sub:      0 | 0.000000
   Floating Point Float Mul/Div:      76 | 0.625626
   Floating Point Double Mul/Div:      0 | 0.000000
   0 Cycle Compare FU's:              85 | 0.664984
   GEP Instruction FU's:              33 | 0.117424
   Type Conversion FU's:             110 | 0.379700

   ========= Static FU's ==========================
   Counter FU's:                    0
   Integer Add/Sub FU's:            0
   Integer Mul/Div FU's:            0
   Integer Shifter FU's:            0
   Integer Bitwise FU's:            0
   Floating Point Float Add/Sub:    0
   Floating Point Double Add/Sub:   0
   Floating Point Float Mul/Div:    0
   Floating Point Double Mul/Div:   0
   0 Cycle Compare FU's:            0
   GEP Instruction FU's:            0
   Type Conversion FU's:            0
   Other:                           0

   ========= Pipeline Register Usage =============
   Total Number of Registers:       1620
   Max Register Usage Per Cycle:    151
   Avg Register Usage Per Cycle:    58.744711
   Avg Register Size (Bytes):       5.073357

   ========= Memory Configuration =================
   Cache Bus Ports:                 0
   Shared Cache Size:               0kB
   Local Bus Ports:                 0
   Private SPM Size:                112kB
   Private Read Ports:              0
   Private Write Ports:             0
   Private Read Bus Width:          64
   Private Write Bus Width:         64
       Memory Reads:                0
       Memory Writes:               0
   ========= Power Analysis ======================
   FU Leakage Power:                1.637787 mW 
   FU Dynamic Power:                9.655087 mW 
   FU Total Power:                  11.292874 mW 

   Registers Leakage Power:          0.021654 mW 
   Registers Dynamic Power:          3.085961 mW 
       Register Reads (Bits):        2049133
       Register Writes (Bits):       2049168
   Registers Total Power:            3.107615 mW

   SPM Leakage Power:               0.061081 mW
   SPM Read Dynamic Power:          15.102444 mW
   SPM Write Dynamic Power:         10.618341 mW
   SPM Total Power:                 25.781867 mW

   Cache Leakage Power:             0.000000 mW
   Cache Read Dynamic Power:        0.000000 mW
   Cache Write Dynamic Power:       0.000000 mW
   Cache Total Power:               0.000000 mW

   Accelerator Power:               14.400490 mW
   Accelerator Power (SPM):         40.182357 mW
   Accelerator Power (Cache):       14.400490 mW

   ========= Area Analysis =======================
   FU Area:                         176023.796875 um^2 (0.176024 mm^2)
   Register Area:                   1760.064941 um^2 (0.001760 mm^2)
   SPM Area:                        2165.394891 um^2 (0.002165 mm^2)
   Cache Area:                      0.000000 um^2 (0.000000 mm^2)

   Accelerator Area:                177783.859375 um^2 (0.177784 mm^2)
   Accelerator Area (SPM):          179949.254266 um^2 (0.179949 mm^2)
   Accelerator Area (Cache):        177783.859375 um^2 (0.177784 mm^2)

   ========= SPM Resizing  =======================
   SPM Optimized Leakage Power:     0.005964 mW
   SPM Opt Area:                    422.108128 um^2

3888185875: system.acctest.grayscale0_dma: SRC:0x000000002500c020, DST:0x000000008211eb40, LEN:65536
3889874000: system.acctest.convolution0_dma: SRC:0x000000002500c020, DST:0x0000000022000020, LEN:65536
3890385625: global: Timer #0 stopped at tick 3890385625. Duration: 17338125
3890401875: global: Number of accelerators running = 4
3890655625: global: Timer #0 started at tick 3890655625
3891156250: global: Timer #1 started at tick 3891156250
3891225625: global: Timer #1 stopped at tick 3891225625. Duration: 69375
3893473750: global: Timer #0 stopped at tick 3893473750. Duration: 2818125
3893533125: global: Number of accelerators running = 4
3893780000: global: Timer #0 started at tick 3893780000
3894508125: global: Timer #3 started at tick 3894508125
3894715000: global: Timer #4 started at tick 3894715000
3894751875: global: Timer #4 stopped at tick 3894751875. Duration: 36875
3894765000: global: Timer #5 started at tick 3894765000
3894780000: global: Timer #5 stopped at tick 3894780000. Duration: 15000
3895098750: global: Timer #3 stopped at tick 3895098750. Duration: 590625
3895162500: global: Timer #2 started at tick 3895162500
3895237500: global: Timer #2 stopped at tick 3895237500. Duration: 75000
3895259375: global: Timer #4 started at tick 3895259375
3895298125: global: Timer #4 stopped at tick 3895298125. Duration: 38750
3899554875: system.acctest.grayscale0_dma: Transfer completed in 11.369 us
3903290000: system.acctest.convolution0_dma: Transfer completed in 13.416 us
********************************************************************************
system.acctest.elem_matrix0.compute
   ========= Performance Analysis =============
   Setup Time:                      8.120708seconds
   Simulation Time:                 104.833766seconds
   System Clock:                    1.000000GHz
   Transistor Latency:              1ns
   Runtime:                         10932 cycles
   Runtime:                         10.932000 us
   Stalls:                          1 cycles
   Executed Nodes:                  10930 cycles

********************************************************************************
   ========= Performance Analysis =================
   Setup Time:                      8120707526.000000ns
   Simulation Time:                 104833765627.000000ns
   System Clock:                    1.000000GHz
   Transistor Latency:              0ns
   Runtime:                         10932 cycles
   Runtime:                         0.000001 seconds
   Stalls:                          1 cycles
       Load Only:                   0 cycles
       Store Only:                  1 cycles
       Compute Only:                0 cycles
       Compute & Store:             0 cycles
       Load & Store:                0 cycles
       Load & Compute:              0 cycles
       Load & Compute & Store:      0 cycles
   Executed Nodes:                  10930 cycles
       Load Only:                   0 cycles
       Store Only:                  4 cycles
       Compute Only:                1 cycles
       Compute & Store:             21 cycles
       Load & Store:                0 cycles
       Load & Compute:              6 cycles
       Load & Compute & Store:      10898 cycles

   ========= Runtime FU's ========= (Max | Avg) ===
   Counter FU's:                      32 | 0.046838
   Integer Add/Sub FU's:               0 | 0.000000
   Integer Mul/Div FU's:               0 | 0.000000
   Integer Shifter FU's:               0 | 0.000000
   Integer Bitwise FU's:               1 | 0.000091
   Floating Point Float Add/Sub:       0 | 0.000000
   Floating Point Double Add/Sub:      0 | 0.000000
   Floating Point Float Mul/Div:      34 | 0.044252
   Floating Point Double Mul/Div:      0 | 0.000000
   0 Cycle Compare FU's:             102 | 0.046945
   GEP Instruction FU's:              96 | 0.046835
   Type Conversion FU's:               7 | 0.006782

   ========= Static FU's ==========================
   Counter FU's:                    0
   Integer Add/Sub FU's:            0
   Integer Mul/Div FU's:            0
   Integer Shifter FU's:            0
   Integer Bitwise FU's:            0
   Floating Point Float Add/Sub:    0
   Floating Point Double Add/Sub:   0
   Floating Point Float Mul/Div:    0
   Floating Point Double Mul/Div:   0
   0 Cycle Compare FU's:            0
   GEP Instruction FU's:            0
   Type Conversion FU's:            0
   Other:                           0

   ========= Pipeline Register Usage =============
   Total Number of Registers:       5641
   Max Register Usage Per Cycle:    137
   Avg Register Usage Per Cycle:    12.130992
   Avg Register Size (Bytes):       5.980606

   ========= Memory Configuration =================
   Cache Bus Ports:                 0
   Shared Cache Size:               0kB
   Local Bus Ports:                 0
   Private SPM Size:                256kB
   Private Read Ports:              0
   Private Write Ports:             0
   Private Read Bus Width:          64
   Private Write Bus Width:         64
       Memory Reads:                0
       Memory Writes:               0
   ========= Power Analysis ======================
   FU Leakage Power:                0.045377 mW 
   FU Dynamic Power:                0.142576 mW 
   FU Total Power:                  0.187953 mW 

   Registers Leakage Power:          0.005281 mW 
   Registers Dynamic Power:          0.015326 mW 
       Register Reads (Bits):        132616
       Register Writes (Bits):       133658
   Registers Total Power:            0.020607 mW

   SPM Leakage Power:               0.104100 mW
   SPM Read Dynamic Power:          2.785289 mW
   SPM Write Dynamic Power:         2.044305 mW
   SPM Total Power:                 4.933694 mW

   Cache Leakage Power:             0.000000 mW
   Cache Read Dynamic Power:        0.000000 mW
   Cache Write Dynamic Power:       0.000000 mW
   Cache Total Power:               0.000000 mW

   Accelerator Power:               0.208559 mW
   Accelerator Power (SPM):         5.142254 mW
   Accelerator Power (Cache):       0.208559 mW

   ========= Area Analysis =======================
   FU Area:                         5472.068359 um^2 (0.005472 mm^2)
   Register Area:                   429.271088 um^2 (0.000429 mm^2)
   SPM Area:                        2177.365505 um^2 (0.002177 mm^2)
   Cache Area:                      0.000000 um^2 (0.000000 mm^2)

   Accelerator Area:                5901.339355 um^2 (0.005901 mm^2)
   Accelerator Area (SPM):          8078.704860 um^2 (0.008079 mm^2)
   Accelerator Area (Cache):        5901.339355 um^2 (0.005901 mm^2)

   ========= SPM Resizing  =======================
   SPM Optimized Leakage Power:     0.004248 mW
   SPM Opt Area:                    178.524902 um^2

3905846625: system.acctest.isp0_dma: SRC:0x0000000027010224, DST:0x000000008201cf80, LEN:49152
3906233125: global: Timer #0 stopped at tick 3906233125. Duration: 12453125
3906249375: global: Number of accelerators running = 4
3906364375: global: Timer #0 started at tick 3906364375
3906684375: global: Timer #1 started at tick 3906684375
3906705000: global: Timer #1 stopped at tick 3906705000. Duration: 20625
3907683750: global: DAG ID = 1
3907697500: global: Node ID = 1
3907721875: global: Node deadline difference = -184
3907734375: global: Predicted memory time / byte = 7.27596e-05 us/byte
3907746875: global: Predicted memory time = 3.57628 us
3907759375: global: Predicted memory time / byte = 7.27596e-05 us/byte
3907771875: global: Predicted memory time = 4.76837 us
3907784375: global: Predicted memory time / byte = 0.000527323 us/byte
3907796875: global: Predicted memory time = 25.919 us
3907809375: global: Predicted memory time / byte = 0.000275894 us/byte
3907821875: global: Predicted memory time = 18.081 us
3907834375: global: Predicted memory access size = 49152
3907846875: global: Predicted memory access size = 49152
3907859375: global: Predicted memory access size = 65536
3907871875: global: Predicted memory access size = 65536
3908049375: global: Timer #0 stopped at tick 3908049375. Duration: 1685000
3908065625: global: Number of accelerators running = 3
3908198750: global: Timer #0 started at tick 3908198750
3908703750: global: Timer #1 started at tick 3908703750
3908770000: global: Timer #1 stopped at tick 3908770000. Duration: 66250
3910357375: system.acctest.convolution0_dma: SRC:0x00000000820ce0c0, DST:0x0000000022030020, LEN:100
3910512375: system.acctest.convolution0_dma: Transfer completed in 0.155 us
3910648125: global: Timer #0 stopped at tick 3910648125. Duration: 2449375
3910664375: global: Number of accelerators running = 3
3910995625: global: Timer #0 started at tick 3910995625
3911320625: system.acctest.isp0_dma: Transfer completed in 5.474 us
3911403125: global: Timer #3 started at tick 3911403125
3911465625: global: Timer #4 started at tick 3911465625
3911504375: global: Timer #4 stopped at tick 3911504375. Duration: 38750
3911517500: global: Timer #5 started at tick 3911517500
3911532500: global: Timer #5 stopped at tick 3911532500. Duration: 15000
3911826875: global: Timer #3 stopped at tick 3911826875. Duration: 423750
3911875625: global: Timer #2 started at tick 3911875625
3912072500: global: Timer #2 stopped at tick 3912072500. Duration: 196875
3912388750: global: DAG ID = 2
3912402500: global: Node ID = 1
3912415625: global: Node deadline difference = -3591
3912428125: global: Predicted memory time / byte = 7.27596e-05 us/byte
3912440625: global: Predicted memory time = 9.53674 us
3912453125: global: Predicted memory time / byte = 7.27596e-05 us/byte
3912465625: global: Predicted memory time = 4.76837 us
3912478125: global: Predicted memory time / byte = 0.000275879 us/byte
3912490625: global: Predicted memory time = 18.08 us
3912503125: global: Predicted memory time / byte = 0 us/byte
3912515625: global: Predicted memory time = 0 us
3912528125: global: Predicted memory access size = 131072
3912540625: global: Predicted memory access size = 65536
3912553125: global: Predicted memory access size = 65536
3912565625: global: Predicted memory access size = 0
3926053750: system.acctest.elem_matrix0_dma: SRC:0x0000000082140880, DST:0x0000000024000020, LEN:65536
3926300000: global: Timer #0 stopped at tick 3926300000. Duration: 15304375
3926316250: global: Number of accelerators running = 3
3926523125: global: Timer #0 started at tick 3926523125
3928537500: global: Timer #0 stopped at tick 3928537500. Duration: 2014375
3928553750: global: Number of accelerators running = 3
3928678125: global: Timer #0 started at tick 3928678125
3928998125: global: Timer #1 started at tick 3928998125
3929013125: global: Timer #1 stopped at tick 3929013125. Duration: 15000
3929540625: global: DAG ID = 0
3929554375: global: Node ID = 0
3929578750: global: Node deadline difference = -13394
3929591250: global: Predicted memory time / byte = 7.27596e-05 us/byte
3929603750: global: Predicted memory time = 1.22964 us
3929616250: global: Predicted memory time / byte = 7.27596e-05 us/byte
3929628750: global: Predicted memory time = 3.57628 us
3929641250: global: Predicted memory time / byte = 0.00110852 us/byte
3929653750: global: Predicted memory time = 18.734 us
3929666250: global: Predicted memory time / byte = 0.000462463 us/byte
3929678750: global: Predicted memory time = 22.731 us
3929691250: global: Predicted memory access size = 16900
3929703750: global: Predicted memory access size = 16900
3929716250: global: Predicted memory access size = 49152
3929728750: global: Predicted memory access size = 49152
3938046750: system.acctest.elem_matrix0_dma: Transfer completed in 11.993 us
3939970875: system.acctest.grayscale0_dma: SRC:0x000000008201cf80, DST:0x0000000025000020, LEN:49152
3940231875: global: Timer #0 stopped at tick 3940231875. Duration: 11553750
3940248125: global: Number of accelerators running = 3
3940439375: global: Timer #0 started at tick 3940439375
3940910625: global: Timer #1 started at tick 3940910625
3940938750: global: Timer #1 stopped at tick 3940938750. Duration: 28125
3942675625: global: Timer #0 stopped at tick 3942675625. Duration: 2236250
3942691875: global: Number of accelerators running = 3
3949019875: system.acctest.grayscale0_dma: Transfer completed in 9.049 us
3949105625: global: Timer #0 started at tick 3949105625
3949560625: global: Timer #1 started at tick 3949560625
3949582500: global: Timer #1 stopped at tick 3949582500. Duration: 21875
3950740625: global: Timer #0 stopped at tick 3950740625. Duration: 1635000
3950842500: global: Number of accelerators running = 3
********************************************************************************
system.acctest.elem_matrix0.compute
   ========= Performance Analysis =============
   Setup Time:                      5.885158seconds
   Simulation Time:                 129.337877seconds
   System Clock:                    1.000000GHz
   Transistor Latency:              1ns
   Runtime:                         10932 cycles
   Runtime:                         10.932000 us
   Stalls:                          0 cycles
   Executed Nodes:                  10931 cycles

********************************************************************************
   ========= Performance Analysis =================
   Setup Time:                      5885158174.000000ns
   Simulation Time:                 129337876779.999985ns
   System Clock:                    1.000000GHz
   Transistor Latency:              0ns
   Runtime:                         10932 cycles
   Runtime:                         0.000001 seconds
   Stalls:                          0 cycles
       Load Only:                   0 cycles
       Store Only:                  0 cycles
       Compute Only:                0 cycles
       Compute & Store:             0 cycles
       Load & Store:                0 cycles
       Load & Compute:              0 cycles
       Load & Compute & Store:      0 cycles
   Executed Nodes:                  10931 cycles
       Load Only:                   0 cycles
       Store Only:                  5 cycles
       Compute Only:                1 cycles
       Compute & Store:             21 cycles
       Load & Store:                0 cycles
       Load & Compute:              7 cycles
       Load & Compute & Store:      10897 cycles

   ========= Runtime FU's ========= (Max | Avg) ===
   Counter FU's:                      32 | 0.046838
   Integer Add/Sub FU's:               0 | 0.000000
   Integer Mul/Div FU's:               0 | 0.000000
   Integer Shifter FU's:               0 | 0.000000
   Integer Bitwise FU's:               1 | 0.000091
   Floating Point Float Add/Sub:      34 | 0.044252
   Floating Point Double Add/Sub:      0 | 0.000000
   Floating Point Float Mul/Div:       0 | 0.000000
   Floating Point Double Mul/Div:      0 | 0.000000
   0 Cycle Compare FU's:             102 | 0.046974
   GEP Instruction FU's:              96 | 0.046835
   Type Conversion FU's:               7 | 0.006782

   ========= Static FU's ==========================
   Counter FU's:                    0
   Integer Add/Sub FU's:            0
   Integer Mul/Div FU's:            0
   Integer Shifter FU's:            0
   Integer Bitwise FU's:            0
   Floating Point Float Add/Sub:    0
   Floating Point Double Add/Sub:   0
   Floating Point Float Mul/Div:    0
   Floating Point Double Mul/Div:   0
   0 Cycle Compare FU's:            0
   GEP Instruction FU's:            0
   Type Conversion FU's:            0
   Other:                           0

   ========= Pipeline Register Usage =============
   Total Number of Registers:       5641
   Max Register Usage Per Cycle:    138
   Avg Register Usage Per Cycle:    12.130992
   Avg Register Size (Bytes):       5.980606

   ========= Memory Configuration =================
   Cache Bus Ports:                 0
   Shared Cache Size:               0kB
   Local Bus Ports:                 0
   Private SPM Size:                256kB
   Private Read Ports:              0
   Private Write Ports:             0
   Private Read Bus Width:          64
   Private Write Bus Width:         64
       Memory Reads:                0
       Memory Writes:               0
   ========= Power Analysis ======================
   FU Leakage Power:                0.519269 mW 
   FU Dynamic Power:                0.154621 mW 
   FU Total Power:                  0.673890 mW 

   Registers Leakage Power:          0.005281 mW 
   Registers Dynamic Power:          0.015326 mW 
       Register Reads (Bits):        132616
       Register Writes (Bits):       133658
   Registers Total Power:            0.020607 mW

   SPM Leakage Power:               0.104100 mW
   SPM Read Dynamic Power:          3.776796 mW
   SPM Write Dynamic Power:         2.457440 mW
   SPM Total Power:                 6.338336 mW

   Cache Leakage Power:             0.000000 mW
   Cache Read Dynamic Power:        0.000000 mW
   Cache Write Dynamic Power:       0.000000 mW
   Cache Total Power:               0.000000 mW

   Accelerator Power:               0.694497 mW
   Accelerator Power (SPM):         7.032833 mW
   Accelerator Power (Cache):       0.694497 mW

   ========= Area Analysis =======================
   FU Area:                         70212.562500 um^2 (0.070213 mm^2)
   Register Area:                   429.271088 um^2 (0.000429 mm^2)
   SPM Area:                        2177.365505 um^2 (0.002177 mm^2)
   Cache Area:                      0.000000 um^2 (0.000000 mm^2)

   Accelerator Area:                70641.835938 um^2 (0.070642 mm^2)
   Accelerator Area (SPM):          72819.201442 um^2 (0.072819 mm^2)
   Accelerator Area (Cache):        70641.835938 um^2 (0.070642 mm^2)

   ========= SPM Resizing  =======================
   SPM Optimized Leakage Power:     0.004248 mW
   SPM Opt Area:                    178.524902 um^2

3953490625: global: Timer #0 started at tick 3953490625
3953835000: global: Timer #3 started at tick 3953835000
3953898125: global: Timer #4 started at tick 3953898125
3953935000: global: Timer #4 stopped at tick 3953935000. Duration: 36875
3953948125: global: Timer #5 started at tick 3953948125
3953963125: global: Timer #5 stopped at tick 3953963125. Duration: 15000
3954300000: global: Timer #3 stopped at tick 3954300000. Duration: 465000
3954356875: global: Timer #2 started at tick 3954356875
3954538750: global: Timer #2 stopped at tick 3954538750. Duration: 181875
3954806875: global: DAG ID = 2
3954820625: global: Node ID = 2
3954833750: global: Node deadline difference = -3606
3954846250: global: Predicted memory time / byte = 7.27596e-05 us/byte
3954858750: global: Predicted memory time = 9.53674 us
3954871250: global: Predicted memory time / byte = 7.27596e-05 us/byte
3954883750: global: Predicted memory time = 4.76837 us
3954896250: global: Predicted memory time / byte = 0.000219543 us/byte
3954908750: global: Predicted memory time = 14.388 us
3954921250: global: Predicted memory time / byte = 0 us/byte
3954933750: global: Predicted memory time = 0 us
3954946250: global: Predicted memory access size = 131072
3954958750: global: Predicted memory access size = 65536
3954971250: global: Predicted memory access size = 65536
3954983750: global: Predicted memory access size = 0
3956436250: global: Timer #0 stopped at tick 3956436250. Duration: 2945625
3956452500: global: Number of accelerators running = 3
********************************************************************************
system.acctest.grayscale0.compute
   ========= Performance Analysis =============
   Setup Time:                      0.007333seconds
   Simulation Time:                 196.646786seconds
   System Clock:                    1.000000GHz
   Transistor Latency:              1ns
   Runtime:                         10263 cycles
   Runtime:                         10.263000 us
   Stalls:                          1 cycles
   Executed Nodes:                  10261 cycles

********************************************************************************
   ========= Performance Analysis =================
   Setup Time:                      7332660.000000ns
   Simulation Time:                 196646785543.000000ns
   System Clock:                    1.000000GHz
   Transistor Latency:              0ns
   Runtime:                         10263 cycles
   Runtime:                         0.000001 seconds
   Stalls:                          1 cycles
       Load Only:                   0 cycles
       Store Only:                  1 cycles
       Compute Only:                0 cycles
       Compute & Store:             0 cycles
       Load & Store:                0 cycles
       Load & Compute:              0 cycles
       Load & Compute & Store:      0 cycles
   Executed Nodes:                  10261 cycles
       Load Only:                   0 cycles
       Store Only:                  1 cycles
       Compute Only:                88 cycles
       Compute & Store:             344 cycles
       Load & Store:                0 cycles
       Load & Compute:              1981 cycles
       Load & Compute & Store:      7847 cycles

   ========= Runtime FU's ========= (Max | Avg) ===
   Counter FU's:                      24 | 0.199556
   Integer Add/Sub FU's:               0 | 0.000000
   Integer Mul/Div FU's:               8 | 0.199552
   Integer Shifter FU's:               0 | 0.000000
   Integer Bitwise FU's:               1 | 0.000097
   Floating Point Float Add/Sub:      49 | 0.114264
   Floating Point Double Add/Sub:      0 | 0.000000
   Floating Point Float Mul/Div:      42 | 0.114129
   Floating Point Double Mul/Div:      0 | 0.000000
   0 Cycle Compare FU's:               9 | 0.066626
   GEP Instruction FU's:              36 | 0.177452
   Type Conversion FU's:              76 | 0.401969

   ========= Static FU's ==========================
   Counter FU's:                    0
   Integer Add/Sub FU's:            0
   Integer Mul/Div FU's:            0
   Integer Shifter FU's:            0
   Integer Bitwise FU's:            0
   Floating Point Float Add/Sub:    0
   Floating Point Double Add/Sub:   0
   Floating Point Float Mul/Div:    0
   Floating Point Double Mul/Div:   0
   0 Cycle Compare FU's:            0
   GEP Instruction FU's:            0
   Type Conversion FU's:            0
   Other:                           0

   ========= Pipeline Register Usage =============
   Total Number of Registers:       235
   Max Register Usage Per Cycle:    90
   Avg Register Usage Per Cycle:    33.924291
   Avg Register Size (Bytes):       5.841147

   ========= Memory Configuration =================
   Cache Bus Ports:                 0
   Shared Cache Size:               0kB
   Local Bus Ports:                 0
   Private SPM Size:                176kB
   Private Read Ports:              0
   Private Write Ports:             0
   Private Read Bus Width:          64
   Private Write Bus Width:         64
       Memory Reads:                0
       Memory Writes:               0
   ========= Power Analysis ======================
   FU Leakage Power:                1.178269 mW 
   FU Dynamic Power:                0.617392 mW 
   FU Total Power:                  1.795662 mW 

   Registers Leakage Power:          0.014185 mW 
   Registers Dynamic Power:          0.101057 mW 
       Register Reads (Bits):        348165
       Register Writes (Bits):       348168
   Registers Total Power:            0.115242 mW

   SPM Leakage Power:               0.089881 mW
   SPM Read Dynamic Power:          10.232207 mW
   SPM Write Dynamic Power:         5.980668 mW
   SPM Total Power:                 16.302756 mW

   Cache Leakage Power:             0.000000 mW
   Cache Read Dynamic Power:        0.000000 mW
   Cache Write Dynamic Power:       0.000000 mW
   Cache Total Power:               0.000000 mW

   Accelerator Power:               1.910904 mW
   Accelerator Power (SPM):         18.213660 mW
   Accelerator Power (Cache):       1.910904 mW

   ========= Area Analysis =======================
   FU Area:                         143348.187500 um^2 (0.143348 mm^2)
   Register Area:                   1152.968140 um^2 (0.001153 mm^2)
   SPM Area:                        3573.642862 um^2 (0.003574 mm^2)
   Cache Area:                      0.000000 um^2 (0.000000 mm^2)

   Accelerator Area:                144501.156250 um^2 (0.144501 mm^2)
   Accelerator Area (SPM):          148074.799112 um^2 (0.148075 mm^2)
   Accelerator Area (Cache):        144501.156250 um^2 (0.144501 mm^2)

   ========= SPM Resizing  =======================
   SPM Optimized Leakage Power:     0.003633 mW
   SPM Opt Area:                    364.024374 um^2

3960898750: global: Timer #0 started at tick 3960898750
3961201250: global: Timer #3 started at tick 3961201250
3961280000: global: Timer #4 started at tick 3961280000
3961390000: global: Timer #4 stopped at tick 3961390000. Duration: 110000
3961393750: global: Timer #5 started at tick 3961393750
3961398750: global: Timer #5 stopped at tick 3961398750. Duration: 5000
3961667500: global: Timer #3 stopped at tick 3961667500. Duration: 466250
3961723750: global: Timer #2 started at tick 3961723750
3961802500: global: Timer #2 stopped at tick 3961802500. Duration: 78750
3961817500: global: Timer #4 started at tick 3961817500
3961863750: global: Timer #4 stopped at tick 3961863750. Duration: 46250
********************************************************************************
system.acctest.elem_matrix0.compute
   ========= Performance Analysis =============
   Setup Time:                      6.503744seconds
   Simulation Time:                 143.444156seconds
   System Clock:                    1.000000GHz
   Transistor Latency:              1ns
   Runtime:                         8316 cycles
   Runtime:                         8.316000 us
   Stalls:                          82 cycles
   Executed Nodes:                  8233 cycles

********************************************************************************
   ========= Performance Analysis =================
   Setup Time:                      6503744409.000000ns
   Simulation Time:                 143444155514.000000ns
   System Clock:                    1.000000GHz
   Transistor Latency:              0ns
   Runtime:                         8316 cycles
   Runtime:                         0.000001 seconds
   Stalls:                          82 cycles
       Load Only:                   0 cycles
       Store Only:                  77 cycles
       Compute Only:                0 cycles
       Compute & Store:             5 cycles
       Load & Store:                0 cycles
       Load & Compute:              0 cycles
       Load & Compute & Store:      0 cycles
   Executed Nodes:                  8233 cycles
       Load Only:                   0 cycles
       Store Only:                  11 cycles
       Compute Only:                1827 cycles
       Compute & Store:             3453 cycles
       Load & Store:                0 cycles
       Load & Compute:              774 cycles
       Load & Compute & Store:      2168 cycles

   ========= Runtime FU's ========= (Max | Avg) ===
   Counter FU's:                      32 | 0.061572
   Integer Add/Sub FU's:               0 | 0.000000
   Integer Mul/Div FU's:               0 | 0.000000
   Integer Shifter FU's:               0 | 0.000000
   Integer Bitwise FU's:               1 | 0.000120
   Floating Point Float Add/Sub:      80 | 0.302014
   Floating Point Double Add/Sub:      0 | 0.000000
   Floating Point Float Mul/Div:      35 | 0.056511
   Floating Point Double Mul/Div:      0 | 0.000000
   0 Cycle Compare FU's:              15 | 0.024828
   GEP Instruction FU's:              64 | 0.061568
   Type Conversion FU's:              66 | 0.120964

   ========= Static FU's ==========================
   Counter FU's:                    0
   Integer Add/Sub FU's:            0
   Integer Mul/Div FU's:            0
   Integer Shifter FU's:            0
   Integer Bitwise FU's:            0
   Floating Point Float Add/Sub:    0
   Floating Point Double Add/Sub:   0
   Floating Point Float Mul/Div:    0
   Floating Point Double Mul/Div:   0
   0 Cycle Compare FU's:            0
   GEP Instruction FU's:            0
   Type Conversion FU's:            0
   Other:                           0

   ========= Pipeline Register Usage =============
   Total Number of Registers:       5641
   Max Register Usage Per Cycle:    126
   Avg Register Usage Per Cycle:    27.706590
   Avg Register Size (Bytes):       5.993295

   ========= Memory Configuration =================
   Cache Bus Ports:                 0
   Shared Cache Size:               0kB
   Local Bus Ports:                 0
   Private SPM Size:                256kB
   Private Read Ports:              0
   Private Write Ports:             0
   Private Read Bus Width:          64
   Private Write Bus Width:         64
       Memory Reads:                0
       Memory Writes:               0
   ========= Power Analysis ======================
   FU Leakage Power:                1.265749 mW 
   FU Dynamic Power:                1.166708 mW 
   FU Total Power:                  2.432457 mW 

   Registers Leakage Power:          0.011908 mW 
   Registers Dynamic Power:          0.045645 mW 
       Register Reads (Bits):        230408
       Register Writes (Bits):       231961
   Registers Total Power:            0.057553 mW

   SPM Leakage Power:               0.104100 mW
   SPM Read Dynamic Power:          4.599549 mW
   SPM Write Dynamic Power:         2.880682 mW
   SPM Total Power:                 7.584331 mW

   Cache Leakage Power:             0.000000 mW
   Cache Read Dynamic Power:        0.000000 mW
   Cache Write Dynamic Power:       0.000000 mW
   Cache Total Power:               0.000000 mW

   Accelerator Power:               2.490010 mW
   Accelerator Power (SPM):         10.074342 mW
   Accelerator Power (Cache):       2.490010 mW

   ========= Area Analysis =======================
   FU Area:                         170559.593750 um^2 (0.170560 mm^2)
   Register Area:                   967.909180 um^2 (0.000968 mm^2)
   SPM Area:                        2177.365505 um^2 (0.002177 mm^2)
   Cache Area:                      0.000000 um^2 (0.000000 mm^2)

   Accelerator Area:                171527.500000 um^2 (0.171527 mm^2)
   Accelerator Area (SPM):          173704.865505 um^2 (0.173705 mm^2)
   Accelerator Area (Cache):        171527.500000 um^2 (0.171527 mm^2)

   ========= SPM Resizing  =======================
   SPM Optimized Leakage Power:     0.003887 mW
   SPM Opt Area:                    172.850411 um^2

3975203750: system.acctest.grayscale0_dma: SRC:0x000000002500c020, DST:0x0000000082029100, LEN:65536
3975583750: global: Timer #0 stopped at tick 3975583750. Duration: 14685000
3975600000: global: Number of accelerators running = 3
3975716875: global: Timer #0 started at tick 3975716875
3976183125: global: Timer #3 started at tick 3976183125
3976333125: global: Timer #4 started at tick 3976333125
3976380000: global: Timer #4 stopped at tick 3976380000. Duration: 46875
3976393125: global: Timer #5 started at tick 3976393125
3976408125: global: Timer #5 stopped at tick 3976408125. Duration: 15000
3976620000: global: Timer #3 stopped at tick 3976620000. Duration: 436875
3976669375: global: Timer #2 started at tick 3976669375
3976820000: global: Timer #2 stopped at tick 3976820000. Duration: 150625
3977103750: global: DAG ID = 2
3977117500: global: Node ID = 3
3977130625: global: Node deadline difference = -3623
3977143125: global: Predicted memory time / byte = 7.27596e-05 us/byte
3977155625: global: Predicted memory time = 4.76837 us
3977168125: global: Predicted memory time / byte = 7.27596e-05 us/byte
3977180625: global: Predicted memory time = 4.76837 us
3977193125: global: Predicted memory time / byte = 0 us/byte
3977205625: global: Predicted memory time = 0 us
3977218125: global: Predicted memory time / byte = 0 us/byte
3977230625: global: Predicted memory time = 0 us
3977243125: global: Predicted memory access size = 65536
3977255625: global: Predicted memory access size = 0
3977268125: global: Predicted memory access size = 65536
3977280625: global: Predicted memory access size = 0
3981775750: system.acctest.grayscale0_dma: Transfer completed in 6.572 us
3991063750: system.acctest.elem_matrix0_dma: SRC:0x00000000822e0bc0, DST:0x0000000024010020, LEN:65536
3991288750: global: Timer #0 stopped at tick 3991288750. Duration: 15571875
3991305000: global: Number of accelerators running = 3
3991553750: global: Timer #0 started at tick 3991553750
3991946250: global: Timer #1 started at tick 3991946250
3991961250: global: Timer #1 stopped at tick 3991961250. Duration: 15000
3992271250: global: DAG ID = 0
3992285000: global: Node ID = 1
3992303125: global: Node deadline difference = -13368
3992315625: global: Predicted memory time / byte = 7.27596e-05 us/byte
3992328125: global: Predicted memory time = 3.57628 us
3992340625: global: Predicted memory time / byte = 7.27596e-05 us/byte
3992353125: global: Predicted memory time = 4.76837 us
3992365625: global: Predicted memory time / byte = 0.000185811 us/byte
3992378125: global: Predicted memory time = 9.133 us
3992390625: global: Predicted memory time / byte = 0.000248856 us/byte
3992403125: global: Predicted memory time = 16.309 us
3992415625: global: Predicted memory access size = 49152
3992428125: global: Predicted memory access size = 49152
3992440625: global: Predicted memory access size = 65536
3992453125: global: Predicted memory access size = 65536
3992578750: global: Timer #0 stopped at tick 3992578750. Duration: 1025000
3992595000: global: Number of accelerators running = 2
4003054750: system.acctest.elem_matrix0_dma: Transfer completed in 11.991 us
4003140625: global: Timer #0 started at tick 4003140625
4003633125: global: Timer #1 started at tick 4003633125
4003650000: global: Timer #1 stopped at tick 4003650000. Duration: 16875
4005637500: global: Timer #0 stopped at tick 4005637500. Duration: 2496875
4005696875: global: Number of accelerators running = 2
********************************************************************************
system.acctest.elem_matrix0.compute
   ========= Performance Analysis =============
   Setup Time:                      7.517144seconds
   Simulation Time:                 121.686005seconds
   System Clock:                    1.000000GHz
   Transistor Latency:              1ns
   Runtime:                         10932 cycles
   Runtime:                         10.932000 us
   Stalls:                          1 cycles
   Executed Nodes:                  10930 cycles

********************************************************************************
   ========= Performance Analysis =================
   Setup Time:                      7517143939.000000ns
   Simulation Time:                 121686005105.000000ns
   System Clock:                    1.000000GHz
   Transistor Latency:              0ns
   Runtime:                         10932 cycles
   Runtime:                         0.000001 seconds
   Stalls:                          1 cycles
       Load Only:                   0 cycles
       Store Only:                  1 cycles
       Compute Only:                0 cycles
       Compute & Store:             0 cycles
       Load & Store:                0 cycles
       Load & Compute:              0 cycles
       Load & Compute & Store:      0 cycles
   Executed Nodes:                  10930 cycles
       Load Only:                   0 cycles
       Store Only:                  4 cycles
       Compute Only:                1 cycles
       Compute & Store:             21 cycles
       Load & Store:                0 cycles
       Load & Compute:              6 cycles
       Load & Compute & Store:      10898 cycles

   ========= Runtime FU's ========= (Max | Avg) ===
   Counter FU's:                      32 | 0.046838
   Integer Add/Sub FU's:               0 | 0.000000
   Integer Mul/Div FU's:               0 | 0.000000
   Integer Shifter FU's:               0 | 0.000000
   Integer Bitwise FU's:               1 | 0.000091
   Floating Point Float Add/Sub:       0 | 0.000000
   Floating Point Double Add/Sub:      0 | 0.000000
   Floating Point Float Mul/Div:      34 | 0.044252
   Floating Point Double Mul/Div:      0 | 0.000000
   0 Cycle Compare FU's:             102 | 0.046945
   GEP Instruction FU's:              96 | 0.046835
   Type Conversion FU's:               7 | 0.006782

   ========= Static FU's ==========================
   Counter FU's:                    0
   Integer Add/Sub FU's:            0
   Integer Mul/Div FU's:            0
   Integer Shifter FU's:            0
   Integer Bitwise FU's:            0
   Floating Point Float Add/Sub:    0
   Floating Point Double Add/Sub:   0
   Floating Point Float Mul/Div:    0
   Floating Point Double Mul/Div:   0
   0 Cycle Compare FU's:            0
   GEP Instruction FU's:            0
   Type Conversion FU's:            0
   Other:                           0

   ========= Pipeline Register Usage =============
   Total Number of Registers:       5641
   Max Register Usage Per Cycle:    137
   Avg Register Usage Per Cycle:    12.130992
   Avg Register Size (Bytes):       5.980606

   ========= Memory Configuration =================
   Cache Bus Ports:                 0
   Shared Cache Size:               0kB
   Local Bus Ports:                 0
   Private SPM Size:                256kB
   Private Read Ports:              0
   Private Write Ports:             0
   Private Read Bus Width:          64
   Private Write Bus Width:         64
       Memory Reads:                0
       Memory Writes:               0
   ========= Power Analysis ======================
   FU Leakage Power:                0.045377 mW 
   FU Dynamic Power:                0.142576 mW 
   FU Total Power:                  0.187953 mW 

   Registers Leakage Power:          0.005281 mW 
   Registers Dynamic Power:          0.015326 mW 
       Register Reads (Bits):        132616
       Register Writes (Bits):       133658
   Registers Total Power:            0.020607 mW

   SPM Leakage Power:               0.104100 mW
   SPM Read Dynamic Power:          4.784107 mW
   SPM Write Dynamic Power:         3.448926 mW
   SPM Total Power:                 8.337133 mW

   Cache Leakage Power:             0.000000 mW
   Cache Read Dynamic Power:        0.000000 mW
   Cache Write Dynamic Power:       0.000000 mW
   Cache Total Power:               0.000000 mW

   Accelerator Power:               0.208559 mW
   Accelerator Power (SPM):         8.545693 mW
   Accelerator Power (Cache):       0.208559 mW

   ========= Area Analysis =======================
   FU Area:                         5472.068359 um^2 (0.005472 mm^2)
   Register Area:                   429.271088 um^2 (0.000429 mm^2)
   SPM Area:                        2177.365505 um^2 (0.002177 mm^2)
   Cache Area:                      0.000000 um^2 (0.000000 mm^2)

   Accelerator Area:                5901.339355 um^2 (0.005901 mm^2)
   Accelerator Area (SPM):          8078.704860 um^2 (0.008079 mm^2)
   Accelerator Area (Cache):        5901.339355 um^2 (0.005901 mm^2)

   ========= SPM Resizing  =======================
   SPM Optimized Leakage Power:     0.004248 mW
   SPM Opt Area:                    178.524902 um^2

4016297500: global: Timer #0 started at tick 4016297500
4029847375: system.acctest.elem_matrix0_dma: SRC:0x0000000024020020, DST:0x0000000082200a00, LEN:65536
4030231250: global: Timer #0 stopped at tick 4030231250. Duration: 13933750
4030247500: global: Number of accelerators running = 2
4036133375: system.acctest.elem_matrix0_dma: Transfer completed in 6.286 us
4036209375: global: Timer #0 started at tick 4036209375
4036518750: global: Timer #1 started at tick 4036518750
4036533750: global: Timer #1 stopped at tick 4036533750. Duration: 15000
4036802500: global: DAG ID = 2
4036816250: global: Node ID = 4
4036840625: global: Node deadline difference = -3621
4036853125: global: Predicted memory time / byte = 7.27596e-05 us/byte
4036865625: global: Predicted memory time = 9.53674 us
4036878125: global: Predicted memory time / byte = 7.27596e-05 us/byte
4036890625: global: Predicted memory time = 4.76837 us
4036903125: global: Predicted memory time / byte = 0.000184341 us/byte
4036915625: global: Predicted memory time = 12.081 us
4036928125: global: Predicted memory time / byte = 9.56421e-05 us/byte
4036940625: global: Predicted memory time = 6.268 us
4036953125: global: Predicted memory access size = 131072
4036965625: global: Predicted memory access size = 65536
4036978125: global: Predicted memory access size = 65536
4036990625: global: Predicted memory access size = 65536
4050429500: system.acctest.elem_matrix0_dma: SRC:0x00000000821c0a00, DST:0x0000000024000020, LEN:65536
4050643750: global: Timer #0 stopped at tick 4050643750. Duration: 14434375
4050660000: global: Number of accelerators running = 2
4062429500: system.acctest.elem_matrix0_dma: Transfer completed in 12 us
4062548125: global: Timer #0 started at tick 4062548125
4063000000: global: Timer #1 started at tick 4063000000
4063016875: global: Timer #1 stopped at tick 4063016875. Duration: 16875
4076773750: system.acctest.elem_matrix0_dma: SRC:0x0000000082150880, DST:0x0000000024010020, LEN:65536
4077019375: global: Timer #0 stopped at tick 4077019375. Duration: 14471250
4077035625: global: Number of accelerators running = 2
4088781750: system.acctest.elem_matrix0_dma: Transfer completed in 12.008 us
4088857500: global: Timer #0 started at tick 4088857500
4089302500: global: Timer #1 started at tick 4089302500
4089319375: global: Timer #1 stopped at tick 4089319375. Duration: 16875
4091083750: global: Timer #0 stopped at tick 4091083750. Duration: 2226250
4091100000: global: Number of accelerators running = 2
********************************************************************************
system.acctest.elem_matrix0.compute
   ========= Performance Analysis =============
   Setup Time:                      5.179854seconds
   Simulation Time:                 93.142077seconds
   System Clock:                    1.000000GHz
   Transistor Latency:              1ns
   Runtime:                         10932 cycles
   Runtime:                         10.932000 us
   Stalls:                          1 cycles
   Executed Nodes:                  10930 cycles

********************************************************************************
   ========= Performance Analysis =================
   Setup Time:                      5179853886.000000ns
   Simulation Time:                 93142076860.000000ns
   System Clock:                    1.000000GHz
   Transistor Latency:              0ns
   Runtime:                         10932 cycles
   Runtime:                         0.000001 seconds
   Stalls:                          1 cycles
       Load Only:                   0 cycles
       Store Only:                  1 cycles
       Compute Only:                0 cycles
       Compute & Store:             0 cycles
       Load & Store:                0 cycles
       Load & Compute:              0 cycles
       Load & Compute & Store:      0 cycles
   Executed Nodes:                  10930 cycles
       Load Only:                   0 cycles
       Store Only:                  4 cycles
       Compute Only:                1 cycles
       Compute & Store:             21 cycles
       Load & Store:                0 cycles
       Load & Compute:              6 cycles
       Load & Compute & Store:      10898 cycles

   ========= Runtime FU's ========= (Max | Avg) ===
   Counter FU's:                      32 | 0.046838
   Integer Add/Sub FU's:               0 | 0.000000
   Integer Mul/Div FU's:               0 | 0.000000
   Integer Shifter FU's:               0 | 0.000000
   Integer Bitwise FU's:               1 | 0.000091
   Floating Point Float Add/Sub:       0 | 0.000000
   Floating Point Double Add/Sub:      0 | 0.000000
   Floating Point Float Mul/Div:      34 | 0.044252
   Floating Point Double Mul/Div:      0 | 0.000000
   0 Cycle Compare FU's:             102 | 0.046945
   GEP Instruction FU's:              96 | 0.046835
   Type Conversion FU's:               7 | 0.006782

   ========= Static FU's ==========================
   Counter FU's:                    0
   Integer Add/Sub FU's:            0
   Integer Mul/Div FU's:            0
   Integer Shifter FU's:            0
   Integer Bitwise FU's:            0
   Floating Point Float Add/Sub:    0
   Floating Point Double Add/Sub:   0
   Floating Point Float Mul/Div:    0
   Floating Point Double Mul/Div:   0
   0 Cycle Compare FU's:            0
   GEP Instruction FU's:            0
   Type Conversion FU's:            0
   Other:                           0

   ========= Pipeline Register Usage =============
   Total Number of Registers:       5641
   Max Register Usage Per Cycle:    137
   Avg Register Usage Per Cycle:    12.130992
   Avg Register Size (Bytes):       5.980606

   ========= Memory Configuration =================
   Cache Bus Ports:                 0
   Shared Cache Size:               0kB
   Local Bus Ports:                 0
   Private SPM Size:                256kB
   Private Read Ports:              0
   Private Write Ports:             0
   Private Read Bus Width:          64
   Private Write Bus Width:         64
       Memory Reads:                0
       Memory Writes:               0
   ========= Power Analysis ======================
   FU Leakage Power:                0.045377 mW 
   FU Dynamic Power:                0.142576 mW 
   FU Total Power:                  0.187953 mW 

   Registers Leakage Power:          0.005281 mW 
   Registers Dynamic Power:          0.015326 mW 
       Register Reads (Bits):        132616
       Register Writes (Bits):       133658
   Registers Total Power:            0.020607 mW

   SPM Leakage Power:               0.104100 mW
   SPM Read Dynamic Power:          5.190014 mW
   SPM Write Dynamic Power:         3.846212 mW
   SPM Total Power:                 9.140327 mW

   Cache Leakage Power:             0.000000 mW
   Cache Read Dynamic Power:        0.000000 mW
   Cache Write Dynamic Power:       0.000000 mW
   Cache Total Power:               0.000000 mW

   Accelerator Power:               0.208559 mW
   Accelerator Power (SPM):         9.348887 mW
   Accelerator Power (Cache):       0.208559 mW

   ========= Area Analysis =======================
   FU Area:                         5472.068359 um^2 (0.005472 mm^2)
   Register Area:                   429.271088 um^2 (0.000429 mm^2)
   SPM Area:                        2177.365505 um^2 (0.002177 mm^2)
   Cache Area:                      0.000000 um^2 (0.000000 mm^2)

   Accelerator Area:                5901.339355 um^2 (0.005901 mm^2)
   Accelerator Area (SPM):          8078.704860 um^2 (0.008079 mm^2)
   Accelerator Area (Cache):        5901.339355 um^2 (0.005901 mm^2)

   ========= SPM Resizing  =======================
   SPM Optimized Leakage Power:     0.004248 mW
   SPM Opt Area:                    178.524902 um^2

4101844375: global: Timer #0 started at tick 4101844375
4102146250: global: Timer #3 started at tick 4102146250
4102172500: global: Timer #4 started at tick 4102172500
4102211250: global: Timer #4 stopped at tick 4102211250. Duration: 38750
4102224375: global: Timer #5 started at tick 4102224375
4102241875: global: Timer #5 stopped at tick 4102241875. Duration: 17500
4102439375: global: Timer #3 stopped at tick 4102439375. Duration: 293125
[...]
   Type Conversion FU's:            0
   Other:                           0

   ========= Pipeline Register Usage =============
   Total Number of Registers:       5641
   Max Register Usage Per Cycle:    137
   Avg Register Usage Per Cycle:    12.117690
   Avg Register Size (Bytes):       5.980606

   ========= Memory Configuration =================
   Cache Bus Ports:                 0
   Shared Cache Size:               0kB
   Local Bus Ports:                 0
   Private SPM Size:                256kB
   Private Read Ports:              0
   Private Write Ports:             0
   Private Read Bus Width:          64
   Private Write Bus Width:         64
       Memory Reads:                0
       Memory Writes:               0
   ========= Power Analysis ======================
   FU Leakage Power:                0.000611 mW 
   FU Dynamic Power:                0.036818 mW 
   FU Total Power:                  0.037429 mW 

   Registers Leakage Power:          0.005281 mW 
   Registers Dynamic Power:          0.015342 mW 
       Register Reads (Bits):        132616
       Register Writes (Bits):       133658
   Registers Total Power:            0.020624 mW

   SPM Leakage Power:               0.104100 mW
   SPM Read Dynamic Power:          25.633052 mW
   SPM Write Dynamic Power:         20.063116 mW
   SPM Total Power:                 45.800269 mW

   Cache Leakage Power:             0.000000 mW
   Cache Read Dynamic Power:        0.000000 mW
   Cache Write Dynamic Power:       0.000000 mW
   Cache Total Power:               0.000000 mW

   Accelerator Power:               0.058053 mW
   Accelerator Power (SPM):         45.858322 mW
   Accelerator Power (Cache):       0.058053 mW

   ========= Area Analysis =======================
   FU Area:                         50.369961 um^2 (0.000050 mm^2)
   Register Area:                   429.271088 um^2 (0.000429 mm^2)
   SPM Area:                        2177.365505 um^2 (0.002177 mm^2)
   Cache Area:                      0.000000 um^2 (0.000000 mm^2)

   Accelerator Area:                479.641052 um^2 (0.000480 mm^2)
   Accelerator Area (SPM):          2657.006557 um^2 (0.002657 mm^2)
   Accelerator Area (Cache):        479.641052 um^2 (0.000480 mm^2)

   ========= SPM Resizing  =======================
   SPM Optimized Leakage Power:     0.004248 mW
   SPM Opt Area:                    178.524902 um^2

21435145000: global: Timer #0 started at tick 21435145000
21435376250: global: Timer #3 started at tick 21435376250
21435395625: global: Timer #4 started at tick 21435395625
21435434375: global: Timer #4 stopped at tick 21435434375. Duration: 38750
21435447500: global: Timer #5 started at tick 21435447500
21435465000: global: Timer #5 stopped at tick 21435465000. Duration: 17500
21435661250: global: Timer #3 stopped at tick 21435661250. Duration: 285000
21435705000: global: Timer #2 started at tick 21435705000
21435755000: global: Timer #2 stopped at tick 21435755000. Duration: 50000
21435990000: global: DAG ID = 1
21436003750: global: Node ID = 19
21436016875: global: Node deadline difference = 2643
21436029375: global: Predicted memory time / byte = 7.27596e-05 us/byte
21436041875: global: Predicted memory time = 9.53674 us
21436054375: global: Predicted memory time / byte = 7.27596e-05 us/byte
21436066875: global: Predicted memory time = 4.76837 us
21436079375: global: Predicted memory time / byte = 0.000171379 us/byte
21436091875: global: Predicted memory time = 22.463 us
21436104375: global: Predicted memory time / byte = 0 us/byte
21436116875: global: Predicted memory time = 0 us
21436129375: global: Predicted memory access size = 131072
21436141875: global: Predicted memory access size = 131072
21436154375: global: Predicted memory access size = 65536
21436166875: global: Predicted memory access size = 0
21436995875: system.acctest.convolution0_dma: SRC:0x0000000024020020, DST:0x0000000022000020, LEN:65536
21437228750: global: Timer #0 stopped at tick 21437228750. Duration: 2083750
21437245000: global: Number of accelerators running = 1
21447256875: system.acctest.convolution0_dma: Transfer completed in 10.261 us
21447388125: global: Timer #0 started at tick 21447388125
21447877500: global: Timer #1 started at tick 21447877500
21447894375: global: Timer #1 stopped at tick 21447894375. Duration: 16875
21449100875: system.acctest.convolution0_dma: SRC:0x00000000820ce140, DST:0x0000000022030020, LEN:100
21449197875: system.acctest.convolution0_dma: Transfer completed in 0.097 us
21449357500: global: Timer #0 stopped at tick 21449357500. Duration: 1969375
21449373750: global: Number of accelerators running = 1
21449661250: global: Timer #0 started at tick 21449661250
21451411250: global: Timer #0 stopped at tick 21451411250. Duration: 1750000
21451427500: global: Number of accelerators running = 1
********************************************************************************
system.acctest.convolution0.compute
   ========= Performance Analysis =============
   Setup Time:                      0.417993seconds
   Simulation Time:                 190.845076seconds
   System Clock:                    1.000000GHz
   Transistor Latency:              1ns
   Runtime:                         1545605 cycles
   Runtime:                         1545.605000 us
   Stalls:                          0 cycles
   Executed Nodes:                  1545604 cycles

********************************************************************************
   ========= Performance Analysis =================
   Setup Time:                      417992969.000000ns
   Simulation Time:                 190845075758.000000ns
   System Clock:                    1.000000GHz
   Transistor Latency:              0ns
   Runtime:                         1545605 cycles
   Runtime:                         0.000155 seconds
   Stalls:                          0 cycles
       Load Only:                   0 cycles
       Store Only:                  0 cycles
       Compute Only:                0 cycles
       Compute & Store:             0 cycles
       Load & Store:                0 cycles
       Load & Compute:              0 cycles
       Load & Compute & Store:      0 cycles
   Executed Nodes:                  1545604 cycles
       Load Only:                   0 cycles
       Store Only:                  0 cycles
       Compute Only:                1127274 cycles
       Compute & Store:             16374 cycles
       Load & Store:                0 cycles
       Load & Compute:              401946 cycles
       Load & Compute & Store:      10 cycles

   ========= Runtime FU's ========= (Max | Avg) ===
   Counter FU's:                       3 | 0.112298
   Integer Add/Sub FU's:               4 | 0.211564
   Integer Mul/Div FU's:               1 | 0.052505
   Integer Shifter FU's:              10 | 0.005268
   Integer Bitwise FU's:               2 | 0.184266
   Floating Point Float Add/Sub:       5 | 0.207991
   Floating Point Double Add/Sub:      0 | 0.000000
   Floating Point Float Mul/Div:       2 | 0.130117
   Floating Point Double Mul/Div:      0 | 0.000000
   0 Cycle Compare FU's:              40 | 0.145956
   GEP Instruction FU's:               4 | 0.132683
   Type Conversion FU's:               7 | 0.186618

   ========= Static FU's ==========================
   Counter FU's:                    0
   Integer Add/Sub FU's:            0
   Integer Mul/Div FU's:            0
   Integer Shifter FU's:            0
   Integer Bitwise FU's:            0
   Floating Point Float Add/Sub:    0
   Floating Point Double Add/Sub:   0
   Floating Point Float Mul/Div:    0
   Floating Point Double Mul/Div:   0
   0 Cycle Compare FU's:            0
   GEP Instruction FU's:            0
   Type Conversion FU's:            0
   Other:                           0

   ========= Pipeline Register Usage =============
   Total Number of Registers:       1702
   Max Register Usage Per Cycle:    20
   Avg Register Usage Per Cycle:    6.348199
   Avg Register Size (Bytes):       5.569148

   ========= Memory Configuration =================
   Cache Bus Ports:                 0
   Shared Cache Size:               0kB
   Local Bus Ports:                 0
   Private SPM Size:                192kB
   Private Read Ports:              0
   Private Write Ports:             0
   Private Read Bus Width:          64
   Private Write Bus Width:         64
       Memory Reads:                0
       Memory Writes:               0
   ========= Power Analysis ======================
   FU Leakage Power:                0.196912 mW 
   FU Dynamic Power:                2743.028564 mW 
   FU Total Power:                  2743.225586 mW 

   Registers Leakage Power:          0.002459 mW 
   Registers Dynamic Power:          75.251152 mW 
       Register Reads (Bits):        9811808
       Register Writes (Bits):       10049727
   Registers Total Power:            75.253609 mW

   SPM Leakage Power:               0.078311 mW
   SPM Read Dynamic Power:          37.099763 mW
   SPM Write Dynamic Power:         5.754209 mW
   SPM Total Power:                 42.932282 mW

   Cache Leakage Power:             0.000000 mW
   Cache Read Dynamic Power:        0.000000 mW
   Cache Write Dynamic Power:       0.000000 mW
   Cache Total Power:               0.000000 mW

   Accelerator Power:               2818.479248 mW
   Accelerator Power (SPM):         2861.411530 mW
   Accelerator Power (Cache):       2818.479248 mW

   ========= Area Analysis =======================
   FU Area:                         22931.867188 um^2 (0.022932 mm^2)
   Register Area:                   199.868912 um^2 (0.000200 mm^2)
   SPM Area:                        1748.188735 um^2 (0.001748 mm^2)
   Cache Area:                      0.000000 um^2 (0.000000 mm^2)

   Accelerator Area:                23131.736328 um^2 (0.023132 mm^2)
   Accelerator Area (SPM):          24879.925063 um^2 (0.024880 mm^2)
   Accelerator Area (Cache):        23131.736328 um^2 (0.023132 mm^2)

   ========= SPM Resizing  =======================
   SPM Optimized Leakage Power:     0.002053 mW
   SPM Opt Area:                    145.024971 um^2

22996876250: global: Timer #0 started at tick 22996876250
22997256875: global: Timer #3 started at tick 22997256875
22997324375: global: Timer #4 started at tick 22997324375
22997363125: global: Timer #4 stopped at tick 22997363125. Duration: 38750
22997376250: global: Timer #5 started at tick 22997376250
22997391250: global: Timer #5 stopped at tick 22997391250. Duration: 15000
22997670000: global: Timer #3 stopped at tick 22997670000. Duration: 413125
22997713750: global: Timer #2 started at tick 22997713750
22997763750: global: Timer #2 stopped at tick 22997763750. Duration: 50000
22998000625: global: DAG ID = 1
22998014375: global: Node ID = 20
22998027500: global: Node deadline difference = 2628
22998040000: global: Predicted memory time / byte = 7.27596e-05 us/byte
22998052500: global: Predicted memory time = 4.77565 us
22998065000: global: Predicted memory time / byte = 7.27596e-05 us/byte
22998077500: global: Predicted memory time = 4.76837 us
22998090000: global: Predicted memory time / byte = 0.000158432 us/byte
22998102500: global: Predicted memory time = 10.383 us
22998115000: global: Predicted memory time / byte = 0 us/byte
22998127500: global: Predicted memory time = 0 us
22998140000: global: Predicted memory access size = 65636
22998152500: global: Predicted memory access size = 65636
22998165000: global: Predicted memory access size = 65536
22998177500: global: Predicted memory access size = 0
23011525875: system.acctest.elem_matrix0_dma: SRC:0x00000000820fe600, DST:0x0000000024000020, LEN:65536
23011733125: global: Timer #0 stopped at tick 23011733125. Duration: 14856875
23011749375: global: Number of accelerators running = 1
23023429875: system.acctest.elem_matrix0_dma: Transfer completed in 11.904 us
23023605000: global: Timer #0 started at tick 23023605000
23024098125: global: Timer #1 started at tick 23024098125
23024118125: global: Timer #1 stopped at tick 23024118125. Duration: 20000
23025365875: system.acctest.elem_matrix0_dma: SRC:0x0000000022010020, DST:0x0000000024010020, LEN:65536
23025598125: global: Timer #0 stopped at tick 23025598125. Duration: 1993125
23025614375: global: Number of accelerators running = 1
23035626875: system.acctest.elem_matrix0_dma: Transfer completed in 10.261 us
23035704375: global: Timer #0 started at tick 23035704375
23036142500: global: Timer #1 started at tick 23036142500
23036159375: global: Timer #1 stopped at tick 23036159375. Duration: 16875
23037881875: global: Timer #0 stopped at tick 23037881875. Duration: 2177500
23037898125: global: Number of accelerators running = 1
********************************************************************************
system.acctest.elem_matrix0.compute
   ========= Performance Analysis =============
   Setup Time:                      3.216489seconds
   Simulation Time:                 70.597864seconds
   System Clock:                    1.000000GHz
   Transistor Latency:              1ns
   Runtime:                         10932 cycles
   Runtime:                         10.932000 us
   Stalls:                          1 cycles
   Executed Nodes:                  10930 cycles

********************************************************************************
   ========= Performance Analysis =================
   Setup Time:                      3216488930.000000ns
   Simulation Time:                 70597864077.000000ns
   System Clock:                    1.000000GHz
   Transistor Latency:              0ns
   Runtime:                         10932 cycles
   Runtime:                         0.000001 seconds
   Stalls:                          1 cycles
       Load Only:                   0 cycles
       Store Only:                  1 cycles
       Compute Only:                0 cycles
       Compute & Store:             0 cycles
       Load & Store:                0 cycles
       Load & Compute:              0 cycles
       Load & Compute & Store:      0 cycles
   Executed Nodes:                  10930 cycles
       Load Only:                   0 cycles
       Store Only:                  4 cycles
       Compute Only:                1 cycles
       Compute & Store:             21 cycles
       Load & Store:                0 cycles
       Load & Compute:              6 cycles
       Load & Compute & Store:      10898 cycles

   ========= Runtime FU's ========= (Max | Avg) ===
   Counter FU's:                      32 | 0.046838
   Integer Add/Sub FU's:               0 | 0.000000
   Integer Mul/Div FU's:               0 | 0.000000
   Integer Shifter FU's:               0 | 0.000000
   Integer Bitwise FU's:               1 | 0.000091
   Floating Point Float Add/Sub:       0 | 0.000000
   Floating Point Double Add/Sub:      0 | 0.000000
   Floating Point Float Mul/Div:      34 | 0.044252
   Floating Point Double Mul/Div:      0 | 0.000000
   0 Cycle Compare FU's:             102 | 0.046945
   GEP Instruction FU's:              96 | 0.046835
   Type Conversion FU's:               7 | 0.006782

   ========= Static FU's ==========================
   Counter FU's:                    0
   Integer Add/Sub FU's:            0
   Integer Mul/Div FU's:            0
   Integer Shifter FU's:            0
   Integer Bitwise FU's:            0
   Floating Point Float Add/Sub:    0
   Floating Point Double Add/Sub:   0
   Floating Point Float Mul/Div:    0
   Floating Point Double Mul/Div:   0
   0 Cycle Compare FU's:            0
   GEP Instruction FU's:            0
   Type Conversion FU's:            0
   Other:                           0

   ========= Pipeline Register Usage =============
   Total Number of Registers:       5641
   Max Register Usage Per Cycle:    137
   Avg Register Usage Per Cycle:    12.130992
   Avg Register Size (Bytes):       5.980606

   ========= Memory Configuration =================
   Cache Bus Ports:                 0
   Shared Cache Size:               0kB
   Local Bus Ports:                 0
   Private SPM Size:                256kB
   Private Read Ports:              0
   Private Write Ports:             0
   Private Read Bus Width:          64
   Private Write Bus Width:         64
       Memory Reads:                0
       Memory Writes:               0
   ========= Power Analysis ======================
   FU Leakage Power:                0.045377 mW 
   FU Dynamic Power:                0.142576 mW 
   FU Total Power:                  0.187953 mW 

   Registers Leakage Power:          0.005281 mW 
   Registers Dynamic Power:          0.015326 mW 
       Register Reads (Bits):        132616
       Register Writes (Bits):       133658
   Registers Total Power:            0.020607 mW

   SPM Leakage Power:               0.104100 mW
   SPM Read Dynamic Power:          25.733221 mW
   SPM Write Dynamic Power:         20.114600 mW
   SPM Total Power:                 45.951921 mW

   Cache Leakage Power:             0.000000 mW
   Cache Read Dynamic Power:        0.000000 mW
   Cache Write Dynamic Power:       0.000000 mW
   Cache Total Power:               0.000000 mW

   Accelerator Power:               0.208559 mW
   Accelerator Power (SPM):         46.160480 mW
   Accelerator Power (Cache):       0.208559 mW

   ========= Area Analysis =======================
   FU Area:                         5472.068359 um^2 (0.005472 mm^2)
   Register Area:                   429.271088 um^2 (0.000429 mm^2)
   SPM Area:                        2177.365505 um^2 (0.002177 mm^2)
   Cache Area:                      0.000000 um^2 (0.000000 mm^2)

   Accelerator Area:                5901.339355 um^2 (0.005901 mm^2)
   Accelerator Area (SPM):          8078.704860 um^2 (0.008079 mm^2)
   Accelerator Area (Cache):        5901.339355 um^2 (0.005901 mm^2)

   ========= SPM Resizing  =======================
   SPM Optimized Leakage Power:     0.004248 mW
   SPM Opt Area:                    178.524902 um^2

23048668125: global: Timer #0 started at tick 23048668125
23061965875: system.acctest.elem_matrix0_dma: SRC:0x0000000024020020, DST:0x00000000820fe600, LEN:65536
23062323125: global: Timer #0 stopped at tick 23062323125. Duration: 13655000
23062339375: global: Number of accelerators running = 1
23068299875: system.acctest.elem_matrix0_dma: Transfer completed in 6.334 us
23068386875: global: Timer #0 started at tick 23068386875
23068764375: global: Timer #1 started at tick 23068764375
23068779375: global: Timer #1 stopped at tick 23068779375. Duration: 15000
23069026875: global: DAG ID = 1
23069040625: global: Node ID = 21
23069064375: global: DAG execution time = 19310
23069077500: global: DAG deadline difference = 2643
23069094375: global: Node deadline difference = 2643
23069106875: global: Predicted memory time / byte = 7.27596e-05 us/byte
23069119375: global: Predicted memory time = 9.53674 us
23069131875: global: Predicted memory time / byte = 7.27596e-05 us/byte
23069144375: global: Predicted memory time = 4.76837 us
23069156875: global: Predicted memory time / byte = 0.00017099 us/byte
23069169375: global: Predicted memory time = 22.412 us
23069181875: global: Predicted memory time / byte = 9.758e-05 us/byte
23069194375: global: Predicted memory time = 6.395 us
23069206875: global: Predicted memory access size = 131072
23069219375: global: Predicted memory access size = 131072
23069231875: global: Predicted memory access size = 65536
23069244375: global: Predicted memory access size = 65536
23069348125: global: Timer #0 stopped at tick 23069348125. Duration: 961250
23069364375: global: Number of accelerators running = 0
23069455000: global: Number of forwards = 141
23069590000: global: Number of colocations = 122
23069609375: global: Number of DAG deadlines met = 2
23069628750: global: Number of node deadlines met = 160
23069662500: global: Total predicted compute time = 20610 us
Exiting @ tick 23069911875 because m5_exit instruction encountered
