gem5 Simulator System.  http://gem5.org
gem5 is copyrighted software; use the --copyright option for details.

gem5 compiled Oct  4 2023 20:26:28
gem5 started Oct  5 2023 21:06:00
gem5 executing on node4x10a.cs.rochester.edu, pid 48186
command line: /u/sgupta45/gem5-SALAM/build/ARM/gem5_bus.opt --debug-flags=HWACC,CommInterface,LLVMInterface,StreamDma,NoncoherentDma,TickTimer,SchedulerStats --outdir=BM_ARM_OUT/comb_2_opt_flush_opt_fwd/canny_0_deblur_1_gru_0_harris_1_lstm_0_FCFS configs/SALAM/scheduler.py --mem-size=4GB --mem-type=LPDDR5_6400_1x16_BG_BL32 --kernel=/u/sgupta45/gem5-SALAM/benchmarks/scheduler/sw/bin_comb_2/canny_0_deblur_1_gru_0_harris_1_lstm_0_FCFS.elf --vans-config-path=/u/sgupta45/VANS/config --disk-image=/u/sgupta45/gem5-SALAM/baremetal/common/fake.iso --machine-type=VExpress_GEM5_V1 --dtb-file=none --bare-metal --cpu-type=ex5_LITTLE --cpu-clock=1.6GHz --accpath=/u/sgupta45/gem5-SALAM/benchmarks --caches --cacheline_size=64 --l1d_size=32kB --l1d_assoc=4 --l1i_size=32kB --l1i_assoc=2

Global frequency set at 1000000000000 ticks per second
Cycle Counts Loaded!
Cycle Counts Loaded!
Cycle Counts Loaded!
Cycle Counts Loaded!
Cycle Counts Loaded!
Cycle Counts Loaded!
Cycle Counts Loaded!
Cycle Counts Loaded!
Cycle Counts Loaded!
Cycle Counts Loaded!
Cycle Counts Loaded!
**** REAL SIMULATION ****
3820625: global: Timer #8 started at tick 3820625
4038750: global: Timer #8 stopped at tick 4038750. Duration: 218125
4108125: global: Timer #8 started at tick 4108125
4191875: global: Timer #8 stopped at tick 4191875. Duration: 83750
101580625: global: Timer #8 started at tick 101580625
114091875: global: Timer #8 stopped at tick 114091875. Duration: 12511250
114118125: global: Timer #8 started at tick 114118125
126574375: global: Timer #8 stopped at tick 126574375. Duration: 12456250
126597500: global: Timer #8 started at tick 126597500
139051250: global: Timer #8 stopped at tick 139051250. Duration: 12453750
139140000: global: Timer #8 started at tick 139140000
151587500: global: Timer #8 stopped at tick 151587500. Duration: 12447500
152592500: global: Timer #8 started at tick 152592500
155833750: global: Timer #8 stopped at tick 155833750. Duration: 3241250
155850625: global: Timer #8 started at tick 155850625
165199375: global: Timer #8 stopped at tick 165199375. Duration: 9348750
165546250: global: Timer #8 started at tick 165546250
178009375: global: Timer #8 stopped at tick 178009375. Duration: 12463125
184189375: global: Timer #8 started at tick 184189375
187421250: global: Timer #8 stopped at tick 187421250. Duration: 3231875
187438125: global: Timer #8 started at tick 187438125
196792500: global: Timer #8 stopped at tick 196792500. Duration: 9354375
197185625: global: Timer #8 started at tick 197185625
209642500: global: Timer #8 stopped at tick 209642500. Duration: 12456875
210890000: global: Timer #8 started at tick 210890000
210930000: global: Timer #8 stopped at tick 210930000. Duration: 40000
210956875: global: Timer #8 started at tick 210956875
210986250: global: Timer #8 stopped at tick 210986250. Duration: 29375
211003125: global: Timer #8 started at tick 211003125
223456250: global: Timer #8 stopped at tick 223456250. Duration: 12453125
223475000: global: Timer #8 started at tick 223475000
235930625: global: Timer #8 stopped at tick 235930625. Duration: 12455625
238548750: global: Timer #8 started at tick 238548750
251007500: global: Timer #8 stopped at tick 251007500. Duration: 12458750
251025625: global: Timer #8 started at tick 251025625
263477500: global: Timer #8 stopped at tick 263477500. Duration: 12451875
263494375: global: Timer #8 started at tick 263494375
275951250: global: Timer #8 stopped at tick 275951250. Duration: 12456875
275968750: global: Timer #8 started at tick 275968750
288421875: global: Timer #8 stopped at tick 288421875. Duration: 12453125
288438750: global: Timer #8 started at tick 288438750
300892500: global: Timer #8 stopped at tick 300892500. Duration: 12453750
300910000: global: Timer #8 started at tick 300910000
313365625: global: Timer #8 stopped at tick 313365625. Duration: 12455625
313382500: global: Timer #8 started at tick 313382500
313436875: global: Timer #8 stopped at tick 313436875. Duration: 54375
316086875: global: Timer #8 started at tick 316086875
328544375: global: Timer #8 stopped at tick 328544375. Duration: 12457500
328590625: global: Timer #8 started at tick 328590625
341042500: global: Timer #8 stopped at tick 341042500. Duration: 12451875
341101875: global: Timer #8 started at tick 341101875
353557500: global: Timer #8 stopped at tick 353557500. Duration: 12455625
353575625: global: Timer #8 started at tick 353575625
366027500: global: Timer #8 stopped at tick 366027500. Duration: 12451875
366044375: global: Timer #8 started at tick 366044375
366079375: global: Timer #8 stopped at tick 366079375. Duration: 35000
366098125: global: Timer #8 started at tick 366098125
378556250: global: Timer #8 stopped at tick 378556250. Duration: 12458125
378573750: global: Timer #8 started at tick 378573750
391027500: global: Timer #8 stopped at tick 391027500. Duration: 12453750
391044375: global: Timer #8 started at tick 391044375
403501250: global: Timer #8 stopped at tick 403501250. Duration: 12456875
404050625: global: Timer #8 started at tick 404050625
407176250: global: Timer #8 stopped at tick 407176250. Duration: 3125625
410733750: global: Timer #2 started at tick 410733750
410988750: global: Timer #2 stopped at tick 410988750. Duration: 255000
411649375: global: Timer #2 started at tick 411649375
411691875: global: Timer #2 stopped at tick 411691875. Duration: 42500
412383750: global: Timer #6 started at tick 412383750
412773750: global: Timer #7 started at tick 412773750
413495875: system.acctest.isp0_dma: SRC:0x00000000820d2f80, DST:0x0000000027000020, LEN:16900
413811875: global: Timer #7 stopped at tick 413811875. Duration: 1038125
413969375: global: Timer #6 stopped at tick 413969375. Duration: 1585625
414099375: global: Number of accelerators running = 1
416684875: system.acctest.isp0_dma: Transfer completed in 3.189 us
417247500: global: Timer #0 started at tick 417247500
417577500: global: Timer #6 started at tick 417577500
417936250: global: Timer #7 started at tick 417936250
418462500: global: Timer #7 stopped at tick 418462500. Duration: 526250
418754375: global: Timer #6 stopped at tick 418754375. Duration: 1176875
419121875: global: Timer #0 stopped at tick 419121875. Duration: 1874375
419140625: global: Number of accelerators running = 1
********************************************************************************
system.acctest.isp0.compute
   ========= Performance Analysis =============
   Setup Time:                      0.531155seconds
   Simulation Time:                 792.491seconds
   System Clock:                    1GHz
   Transistor Latency:              1ns
   Runtime:                         34882 cycles
   Runtime:                         34.882 us
   Stalls:                          1 cycles
   Executed Nodes:                  34880 cycles

********************************************************************************
   ========= Performance Analysis =================
   Setup Time:                      5.31155e+08ns
   Simulation Time:                 7.92491e+11ns
   System Clock:                    1GHz
   Transistor Latency:              0ns
   Runtime:                         34882 cycles
   Runtime:                         3.4882e-06 seconds
   Stalls:                          1 cycles
       Load Only:                   0 cycles
       Store Only:                  1 cycles
       Compute Only:                0 cycles
       Compute & Store:             0 cycles
       Load & Store:                0 cycles
       Load & Compute:              0 cycles
       Load & Compute & Store:      0 cycles
   Executed Nodes:                  34880 cycles
       Load Only:                   0 cycles
       Store Only:                  1 cycles
       Compute Only:                3453 cycles
       Compute & Store:             19014 cycles
       Load & Store:                0 cycles
       Load & Compute:              2467 cycles
       Load & Compute & Store:      9945 cycles

   ========= Runtime FU's ========= (Max | Avg) ===
   Counter FU's:                      10 | 0.118075
   Integer Add/Sub FU's:              76 | 0.082082
   Integer Mul/Div FU's:              11 | 0.043888
   Integer Shifter FU's:              42 | 0.055974
   Integer Bitwise FU's:               4 | 0.059443
   Floating Point Float Add/Sub:      53 | 0.116839
   Floating Point Double Add/Sub:      0 | 0.000000
   Floating Point Float Mul/Div:      76 | 0.625626
   Floating Point Double Mul/Div:      0 | 0.000000
   0 Cycle Compare FU's:              85 | 0.664984
   GEP Instruction FU's:              33 | 0.117424
   Type Conversion FU's:             110 | 0.379700

   ========= Static FU's ==========================
   Counter FU's:                    0
   Integer Add/Sub FU's:            0
   Integer Mul/Div FU's:            0
   Integer Shifter FU's:            0
   Integer Bitwise FU's:            0
   Floating Point Float Add/Sub:    0
   Floating Point Double Add/Sub:   0
   Floating Point Float Mul/Div:    0
   Floating Point Double Mul/Div:   0
   0 Cycle Compare FU's:            0
   GEP Instruction FU's:            0
   Type Conversion FU's:            0
   Other:                           0

   ========= Pipeline Register Usage =============
   Total Number of Registers:       1620
   Max Register Usage Per Cycle:    151
   Avg Register Usage Per Cycle:    58.744711
   Avg Register Size (Bytes):       5.073357

   ========= Memory Configuration =================
   Cache Bus Ports:                 0
   Shared Cache Size:               0kB
   Local Bus Ports:                 0
   Private SPM Size:                112kB
   Private Read Ports:              0
   Private Write Ports:             0
   Private Read Bus Width:          64
   Private Write Bus Width:         64
       Memory Reads:                0
       Memory Writes:               0
   ========= Power Analysis ======================
   FU Leakage Power:                1.637787 mW 
   FU Dynamic Power:                9.655087 mW 
   FU Total Power:                  11.292874 mW 

   Registers Leakage Power:          0.021654 mW 
   Registers Dynamic Power:          3.085961 mW 
       Register Reads (Bits):        2049133
       Register Writes (Bits):       2049168
   Registers Total Power:            3.107615 mW

   SPM Leakage Power:               0.061081 mW
   SPM Read Dynamic Power:          11.103730 mW
   SPM Write Dynamic Power:         7.385230 mW
   SPM Total Power:                 18.550041 mW

   SPM Energy Per Read Access:      0.142059 nJ
   SPM Energy Per Write Access:     0.255513 nJ

   Cache Leakage Power:             0.000000 mW
   Cache Read Dynamic Power:        0.000000 mW
   Cache Write Dynamic Power:       0.000000 mW
   Cache Total Power:               0.000000 mW

   Accelerator Power:               14.400490 mW
   Accelerator Power (SPM):         32.950531 mW
   Accelerator Power (Cache):       14.400490 mW

   ========= Area Analysis =======================
   FU Area:                         176023.796875 um^2 (0.176024 mm^2)
   Register Area:                   1760.064941 um^2 (0.001760 mm^2)
   SPM Area:                        2165.394891 um^2 (0.002165 mm^2)
   Cache Area:                      0.000000 um^2 (0.000000 mm^2)

   Accelerator Area:                177783.859375 um^2 (0.177784 mm^2)
   Accelerator Area (SPM):          179949.254266 um^2 (0.179949 mm^2)
   Accelerator Area (Cache):        177783.859375 um^2 (0.177784 mm^2)

   ========= SPM Resizing  =======================
   SPM Optimized Leakage Power:     0.005964 mW
   SPM Opt Area:                    422.108128 um^2

453313125: global: Timer #0 started at tick 453313125
453580625: global: Timer #2 started at tick 453580625
453751250: global: Timer #2 stopped at tick 453751250. Duration: 170625
454579375: global: DAG ID = 0
454597500: global: Node ID = 0
454660000: global: Node deadline difference = -252
454678125: global: Predicted memory time / byte = 0 us/byte
454696250: global: Predicted memory time = 0 us
454714375: global: Predicted memory time / byte = 0 us/byte
454732500: global: Predicted memory time = 0 us
454795000: global: Predicted memory time / byte = 0 us/byte
454813125: global: Predicted memory time = 0 us
454831250: global: Predicted memory time / byte = 0 us/byte
454849375: global: Predicted memory time = 0 us
454867500: global: Predicted memory access size = 0
454885625: global: Predicted memory access size = 16900
454947500: global: Predicted memory access size = 0
454966250: global: Predicted memory access size = 0
455158750: global: Timer #6 started at tick 455158750
455633750: global: Timer #7 started at tick 455633750
456311625: system.acctest.grayscale0_dma: SRC:0x0000000027010224, DST:0x0000000025000020, LEN:49152
456571875: global: Timer #7 stopped at tick 456571875. Duration: 938125
456722500: global: Timer #6 stopped at tick 456722500. Duration: 1563750
456852500: global: Timer #6 started at tick 456852500
457155625: global: Timer #7 started at tick 457155625
457801000: system.acctest.isp0_dma: SRC:0x00000000820f57c0, DST:0x0000000027000020, LEN:16900
457933125: global: Timer #7 stopped at tick 457933125. Duration: 777500
458003125: global: Timer #6 stopped at tick 458003125. Duration: 1150625
458058125: global: Timer #0 stopped at tick 458058125. Duration: 4745000
458072500: global: Number of accelerators running = 2
461275000: system.acctest.isp0_dma: Transfer completed in 3.474 us
461350000: global: Timer #0 started at tick 461350000
461506875: global: Timer #6 started at tick 461506875
461550000: global: Timer #7 started at tick 461550000
462068125: global: Timer #7 stopped at tick 462068125. Duration: 518125
462131250: global: Timer #6 stopped at tick 462131250. Duration: 624375
462243750: global: Timer #0 stopped at tick 462243750. Duration: 893750
462258125: global: Number of accelerators running = 2
465878625: system.acctest.grayscale0_dma: Transfer completed in 9.567 us
465973125: global: Timer #0 started at tick 465973125
466130625: global: Timer #6 started at tick 466130625
466266250: global: Timer #7 started at tick 466266250
466707500: global: Timer #7 stopped at tick 466707500. Duration: 441250
466928750: global: Timer #6 stopped at tick 466928750. Duration: 798125
467040000: global: Timer #0 stopped at tick 467040000. Duration: 1066875
467054375: global: Number of accelerators running = 2
********************************************************************************
system.acctest.grayscale0.compute
   ========= Performance Analysis =============
   Setup Time:                      0.009598seconds
   Simulation Time:                 559.730258seconds
   System Clock:                    1.000000GHz
   Transistor Latency:              1ns
   Runtime:                         10263 cycles
   Runtime:                         10.263000 us
   Stalls:                          1 cycles
   Executed Nodes:                  10261 cycles

********************************************************************************
   ========= Performance Analysis =================
   Setup Time:                      9597896.000000ns
   Simulation Time:                 559730258062.000000ns
   System Clock:                    1.000000GHz
   Transistor Latency:              0ns
   Runtime:                         10263 cycles
   Runtime:                         0.000001 seconds
   Stalls:                          1 cycles
       Load Only:                   0 cycles
       Store Only:                  1 cycles
       Compute Only:                0 cycles
       Compute & Store:             0 cycles
       Load & Store:                0 cycles
       Load & Compute:              0 cycles
       Load & Compute & Store:      0 cycles
   Executed Nodes:                  10261 cycles
       Load Only:                   0 cycles
       Store Only:                  1 cycles
       Compute Only:                88 cycles
       Compute & Store:             344 cycles
       Load & Store:                0 cycles
       Load & Compute:              1981 cycles
       Load & Compute & Store:      7847 cycles

   ========= Runtime FU's ========= (Max | Avg) ===
   Counter FU's:                      24 | 0.199556
   Integer Add/Sub FU's:               0 | 0.000000
   Integer Mul/Div FU's:               8 | 0.199552
   Integer Shifter FU's:               0 | 0.000000
   Integer Bitwise FU's:               1 | 0.000097
   Floating Point Float Add/Sub:      49 | 0.114264
   Floating Point Double Add/Sub:      0 | 0.000000
   Floating Point Float Mul/Div:      42 | 0.114129
   Floating Point Double Mul/Div:      0 | 0.000000
   0 Cycle Compare FU's:               9 | 0.066626
   GEP Instruction FU's:              36 | 0.177452
   Type Conversion FU's:              76 | 0.401969

   ========= Static FU's ==========================
   Counter FU's:                    0
   Integer Add/Sub FU's:            0
   Integer Mul/Div FU's:            0
   Integer Shifter FU's:            0
   Integer Bitwise FU's:            0
   Floating Point Float Add/Sub:    0
   Floating Point Double Add/Sub:   0
   Floating Point Float Mul/Div:    0
   Floating Point Double Mul/Div:   0
   0 Cycle Compare FU's:            0
   GEP Instruction FU's:            0
   Type Conversion FU's:            0
   Other:                           0

   ========= Pipeline Register Usage =============
   Total Number of Registers:       235
   Max Register Usage Per Cycle:    90
   Avg Register Usage Per Cycle:    33.924291
   Avg Register Size (Bytes):       5.841147

   ========= Memory Configuration =================
   Cache Bus Ports:                 0
   Shared Cache Size:               0kB
   Local Bus Ports:                 0
   Private SPM Size:                176kB
   Private Read Ports:              0
   Private Write Ports:             0
   Private Read Bus Width:          64
   Private Write Bus Width:         64
       Memory Reads:                0
       Memory Writes:               0
   ========= Power Analysis ======================
   FU Leakage Power:                1.178269 mW 
   FU Dynamic Power:                0.617392 mW 
   FU Total Power:                  1.795662 mW 

   Registers Leakage Power:          0.014185 mW 
   Registers Dynamic Power:          0.101057 mW 
       Register Reads (Bits):        348165
       Register Writes (Bits):       348168
   Registers Total Power:            0.115242 mW

   SPM Leakage Power:               0.089881 mW
   SPM Read Dynamic Power:          6.997296 mW
   SPM Write Dynamic Power:         2.062375 mW
   SPM Total Power:                 9.149552 mW

   SPM Energy Per Read Access:      0.161778 nJ
   SPM Energy Per Write Access:     0.205661 nJ

   Cache Leakage Power:             0.000000 mW
   Cache Read Dynamic Power:        0.000000 mW
   Cache Write Dynamic Power:       0.000000 mW
   Cache Total Power:               0.000000 mW

   Accelerator Power:               1.910904 mW
   Accelerator Power (SPM):         11.060456 mW
   Accelerator Power (Cache):       1.910904 mW

   ========= Area Analysis =======================
   FU Area:                         143348.187500 um^2 (0.143348 mm^2)
   Register Area:                   1152.968140 um^2 (0.001153 mm^2)
   SPM Area:                        3573.642862 um^2 (0.003574 mm^2)
   Cache Area:                      0.000000 um^2 (0.000000 mm^2)

   Accelerator Area:                144501.156250 um^2 (0.144501 mm^2)
   Accelerator Area (SPM):          148074.799112 um^2 (0.148075 mm^2)
   Accelerator Area (Cache):        144501.156250 um^2 (0.144501 mm^2)

   ========= SPM Resizing  =======================
   SPM Optimized Leakage Power:     0.003633 mW
   SPM Opt Area:                    364.024374 um^2

476879375: global: Timer #0 started at tick 476879375
477041875: global: Timer #2 started at tick 477041875
477071875: global: Timer #2 stopped at tick 477071875. Duration: 30000
477545625: global: Timer #7 started at tick 477545625
478188750: system.acctest.grayscale0_dma: SRC:0x000000002501c020, DST:0x00000000820e3340, LEN:65536
478341250: global: Timer #7 stopped at tick 478341250. Duration: 795625
478591875: global: Timer #6 started at tick 478591875
479155625: global: Timer #7 started at tick 479155625
479943000: system.acctest.convolution0_dma: SRC:0x000000002501c020, DST:0x0000000022000020, LEN:65536
480215625: global: Timer #7 stopped at tick 480215625. Duration: 1060000
480244375: global: Timer #6 stopped at tick 480244375. Duration: 1652500
480335625: global: Timer #0 stopped at tick 480335625. Duration: 3456250
480350000: global: Number of accelerators running = 3
489120750: system.acctest.grayscale0_dma: Transfer completed in 10.932 us
489196250: global: Timer #0 started at tick 489196250
489427500: global: DAG ID = 0
489445625: global: Node ID = 1
489512500: global: Node deadline difference = -254
489530625: global: Predicted memory time / byte = 0 us/byte
489548750: global: Predicted memory time = 0 us
489566875: global: Predicted memory time / byte = 0 us/byte
489585000: global: Predicted memory time = 0 us
489603125: global: Predicted memory time / byte = 0 us/byte
489621250: global: Predicted memory time = 0 us
489639375: global: Predicted memory time / byte = 0 us/byte
489657500: global: Predicted memory time = 0 us
489675625: global: Predicted memory access size = 0
489693750: global: Predicted memory access size = 49152
489711875: global: Predicted memory access size = 0
489730000: global: Predicted memory access size = 65536
489857500: global: Timer #0 stopped at tick 489857500. Duration: 661250
489871875: global: Number of accelerators running = 2
493394000: system.acctest.convolution0_dma: Transfer completed in 13.451 us
493533750: global: Timer #0 started at tick 493533750
493691875: global: Timer #6 started at tick 493691875
493924375: global: Timer #7 started at tick 493924375
494568750: system.acctest.convolution0_dma: SRC:0x00000000820928c0, DST:0x0000000022030020, LEN:100
494664750: system.acctest.convolution0_dma: Transfer completed in 0.096 us
494758125: global: Timer #7 stopped at tick 494758125. Duration: 833750
494791875: global: Timer #6 stopped at tick 494791875. Duration: 1100000
494888125: global: Timer #0 stopped at tick 494888125. Duration: 1354375
494902500: global: Number of accelerators running = 2
495019375: global: Timer #0 started at tick 495019375
495176875: global: Timer #6 started at tick 495176875
495235625: global: Timer #7 started at tick 495235625
496298750: global: Timer #7 stopped at tick 496298750. Duration: 1063125
496353750: global: Timer #6 stopped at tick 496353750. Duration: 1176875
496442500: global: Timer #0 stopped at tick 496442500. Duration: 1423125
496456875: global: Number of accelerators running = 2
********************************************************************************
system.acctest.isp0.compute
   ========= Performance Analysis =============
   Setup Time:                      0.736117seconds
   Simulation Time:                 1275.395981seconds
   System Clock:                    1.000000GHz
   Transistor Latency:              1ns
   Runtime:                         34882 cycles
   Runtime:                         34.882000 us
   Stalls:                          1 cycles
   Executed Nodes:                  34880 cycles

********************************************************************************
   ========= Performance Analysis =================
   Setup Time:                      736116842.000000ns
   Simulation Time:                 1275395980634.000000ns
   System Clock:                    1.000000GHz
   Transistor Latency:              0ns
   Runtime:                         34882 cycles
   Runtime:                         0.000003 seconds
   Stalls:                          1 cycles
       Load Only:                   0 cycles
       Store Only:                  1 cycles
       Compute Only:                0 cycles
       Compute & Store:             0 cycles
       Load & Store:                0 cycles
       Load & Compute:              0 cycles
       Load & Compute & Store:      0 cycles
   Executed Nodes:                  34880 cycles
       Load Only:                   0 cycles
       Store Only:                  1 cycles
       Compute Only:                3481 cycles
       Compute & Store:             18975 cycles
       Load & Store:                0 cycles
       Load & Compute:              2497 cycles
       Load & Compute & Store:      9926 cycles

   ========= Runtime FU's ========= (Max | Avg) ===
   Counter FU's:                      10 | 0.118075
   Integer Add/Sub FU's:              68 | 0.091700
   Integer Mul/Div FU's:              11 | 0.043888
   Integer Shifter FU's:              45 | 0.052265
   Integer Bitwise FU's:               4 | 0.059443
   Floating Point Float Add/Sub:      50 | 0.123248
   Floating Point Double Add/Sub:      0 | 0.000000
   Floating Point Float Mul/Div:      79 | 0.600555
   Floating Point Double Mul/Div:      0 | 0.000000
   0 Cycle Compare FU's:              93 | 0.606495
   GEP Instruction FU's:              33 | 0.117424
   Type Conversion FU's:             111 | 0.377212

   ========= Static FU's ==========================
   Counter FU's:                    0
   Integer Add/Sub FU's:            0
   Integer Mul/Div FU's:            0
   Integer Shifter FU's:            0
   Integer Bitwise FU's:            0
   Floating Point Float Add/Sub:    0
   Floating Point Double Add/Sub:   0
   Floating Point Float Mul/Div:    0
   Floating Point Double Mul/Div:   0
   0 Cycle Compare FU's:            0
   GEP Instruction FU's:            0
   Type Conversion FU's:            0
   Other:                           0

   ========= Pipeline Register Usage =============
   Total Number of Registers:       1620
   Max Register Usage Per Cycle:    150
   Avg Register Usage Per Cycle:    58.744711
   Avg Register Size (Bytes):       5.073357

   ========= Memory Configuration =================
   Cache Bus Ports:                 0
   Shared Cache Size:               0kB
   Local Bus Ports:                 0
   Private SPM Size:                112kB
   Private Read Ports:              0
   Private Write Ports:             0
   Private Read Bus Width:          64
   Private Write Bus Width:         64
       Memory Reads:                0
       Memory Writes:               0
   ========= Power Analysis ======================
   FU Leakage Power:                1.578062 mW 
   FU Dynamic Power:                9.630522 mW 
   FU Total Power:                  11.208584 mW 

   Registers Leakage Power:          0.021654 mW 
   Registers Dynamic Power:          3.085961 mW 
       Register Reads (Bits):        2049133
       Register Writes (Bits):       2049168
   Registers Total Power:            3.107615 mW

   SPM Leakage Power:               0.061081 mW
   SPM Read Dynamic Power:          15.102444 mW
   SPM Write Dynamic Power:         10.618341 mW
   SPM Total Power:                 25.781867 mW

   SPM Energy Per Read Access:      0.142059 nJ
   SPM Energy Per Write Access:     0.255513 nJ

   Cache Leakage Power:             0.000000 mW
   Cache Read Dynamic Power:        0.000000 mW
   Cache Write Dynamic Power:       0.000000 mW
   Cache Total Power:               0.000000 mW

   Accelerator Power:               14.316199 mW
   Accelerator Power (SPM):         40.098066 mW
   Accelerator Power (Cache):       14.316199 mW

   ========= Area Analysis =======================
   FU Area:                         170581.953125 um^2 (0.170582 mm^2)
   Register Area:                   1760.064941 um^2 (0.001760 mm^2)
   SPM Area:                        2165.394891 um^2 (0.002165 mm^2)
   Cache Area:                      0.000000 um^2 (0.000000 mm^2)

   Accelerator Area:                172342.015625 um^2 (0.172342 mm^2)
   Accelerator Area (SPM):          174507.410516 um^2 (0.174507 mm^2)
   Accelerator Area (Cache):        172342.015625 um^2 (0.172342 mm^2)

   ========= SPM Resizing  =======================
   SPM Optimized Leakage Power:     0.005889 mW
   SPM Opt Area:                    420.258807 um^2

496923125: global: Timer #0 started at tick 496923125
497098750: global: Timer #2 started at tick 497098750
497138750: global: Timer #2 stopped at tick 497138750. Duration: 40000
497380000: global: DAG ID = 1
497392500: global: Node ID = 0
497405625: global: Node deadline difference = -13940
497418125: global: Predicted memory time / byte = 0 us/byte
497430625: global: Predicted memory time = 0 us
497443125: global: Predicted memory time / byte = 0 us/byte
497455625: global: Predicted memory time = 0 us
497468125: global: Predicted memory time / byte = 0 us/byte
497480625: global: Predicted memory time = 0 us
497493125: global: Predicted memory time / byte = 0 us/byte
497505625: global: Predicted memory time = 0 us
497518125: global: Predicted memory access size = 0
497530625: global: Predicted memory access size = 16900
497543125: global: Predicted memory access size = 0
497555625: global: Predicted memory access size = 0
497641875: global: Timer #6 started at tick 497641875
497748125: global: Timer #7 started at tick 497748125
498378750: system.acctest.grayscale0_dma: SRC:0x0000000027004224, DST:0x0000000025000020, LEN:49152
498510625: global: Timer #7 stopped at tick 498510625. Duration: 762500
498571875: global: Timer #6 stopped at tick 498571875. Duration: 930000
498629375: global: Timer #0 stopped at tick 498629375. Duration: 1706250
498643750: global: Number of accelerators running = 2
506079750: system.acctest.grayscale0_dma: Transfer completed in 7.701 us
506163750: global: Timer #0 started at tick 506163750
506321875: global: Timer #6 started at tick 506321875
506370625: global: Timer #7 started at tick 506370625
506766875: global: Timer #7 stopped at tick 506766875. Duration: 396250
506812500: global: Timer #6 stopped at tick 506812500. Duration: 490625
506906250: global: Timer #0 stopped at tick 506906250. Duration: 742500
506920625: global: Number of accelerators running = 2
********************************************************************************
system.acctest.grayscale0.compute
   ========= Performance Analysis =============
   Setup Time:                      0.010413seconds
   Simulation Time:                 276.021198seconds
   System Clock:                    1.000000GHz
   Transistor Latency:              1ns
   Runtime:                         10263 cycles
   Runtime:                         10.263000 us
   Stalls:                          1 cycles
   Executed Nodes:                  10261 cycles

********************************************************************************
   ========= Performance Analysis =================
   Setup Time:                      10412818.000000ns
   Simulation Time:                 276021198449.000000ns
   System Clock:                    1.000000GHz
   Transistor Latency:              0ns
   Runtime:                         10263 cycles
   Runtime:                         0.000001 seconds
   Stalls:                          1 cycles
       Load Only:                   0 cycles
       Store Only:                  1 cycles
       Compute Only:                0 cycles
       Compute & Store:             0 cycles
       Load & Store:                0 cycles
       Load & Compute:              0 cycles
       Load & Compute & Store:      0 cycles
   Executed Nodes:                  10261 cycles
       Load Only:                   0 cycles
       Store Only:                  1 cycles
       Compute Only:                88 cycles
       Compute & Store:             344 cycles
       Load & Store:                0 cycles
       Load & Compute:              1981 cycles
       Load & Compute & Store:      7847 cycles

   ========= Runtime FU's ========= (Max | Avg) ===
   Counter FU's:                      24 | 0.199556
   Integer Add/Sub FU's:               0 | 0.000000
   Integer Mul/Div FU's:               8 | 0.199552
   Integer Shifter FU's:               0 | 0.000000
   Integer Bitwise FU's:               1 | 0.000097
   Floating Point Float Add/Sub:      49 | 0.114264
   Floating Point Double Add/Sub:      0 | 0.000000
   Floating Point Float Mul/Div:      42 | 0.114129
   Floating Point Double Mul/Div:      0 | 0.000000
   0 Cycle Compare FU's:               9 | 0.066626
   GEP Instruction FU's:              36 | 0.177452
   Type Conversion FU's:              76 | 0.401969

   ========= Static FU's ==========================
   Counter FU's:                    0
   Integer Add/Sub FU's:            0
   Integer Mul/Div FU's:            0
   Integer Shifter FU's:            0
   Integer Bitwise FU's:            0
   Floating Point Float Add/Sub:    0
   Floating Point Double Add/Sub:   0
   Floating Point Float Mul/Div:    0
   Floating Point Double Mul/Div:   0
   0 Cycle Compare FU's:            0
   GEP Instruction FU's:            0
   Type Conversion FU's:            0
   Other:                           0

   ========= Pipeline Register Usage =============
   Total Number of Registers:       235
   Max Register Usage Per Cycle:    90
   Avg Register Usage Per Cycle:    33.924291
   Avg Register Size (Bytes):       5.841147

   ========= Memory Configuration =================
   Cache Bus Ports:                 0
   Shared Cache Size:               0kB
   Local Bus Ports:                 0
   Private SPM Size:                176kB
   Private Read Ports:              0
   Private Write Ports:             0
   Private Read Bus Width:          64
   Private Write Bus Width:         64
       Memory Reads:                0
       Memory Writes:               0
   ========= Power Analysis ======================
   FU Leakage Power:                1.178269 mW 
   FU Dynamic Power:                0.617392 mW 
   FU Total Power:                  1.795662 mW 

   Registers Leakage Power:          0.014185 mW 
   Registers Dynamic Power:          0.101057 mW 
       Register Reads (Bits):        348165
       Register Writes (Bits):       348168
   Registers Total Power:            0.115242 mW

   SPM Leakage Power:               0.089881 mW
   SPM Read Dynamic Power:          10.232207 mW
   SPM Write Dynamic Power:         5.980668 mW
   SPM Total Power:                 16.302756 mW

   SPM Energy Per Read Access:      0.161778 nJ
   SPM Energy Per Write Access:     0.205661 nJ

   Cache Leakage Power:             0.000000 mW
   Cache Read Dynamic Power:        0.000000 mW
   Cache Write Dynamic Power:       0.000000 mW
   Cache Total Power:               0.000000 mW

   Accelerator Power:               1.910904 mW
   Accelerator Power (SPM):         18.213660 mW
   Accelerator Power (Cache):       1.910904 mW

   ========= Area Analysis =======================
   FU Area:                         143348.187500 um^2 (0.143348 mm^2)
   Register Area:                   1152.968140 um^2 (0.001153 mm^2)
   SPM Area:                        3573.642862 um^2 (0.003574 mm^2)
   Cache Area:                      0.000000 um^2 (0.000000 mm^2)

   Accelerator Area:                144501.156250 um^2 (0.144501 mm^2)
   Accelerator Area (SPM):          148074.799112 um^2 (0.148075 mm^2)
   Accelerator Area (Cache):        144501.156250 um^2 (0.144501 mm^2)

   ========= SPM Resizing  =======================
   SPM Optimized Leakage Power:     0.003633 mW
   SPM Opt Area:                    364.024374 um^2

516988125: global: Timer #0 started at tick 516988125
517163125: global: Timer #2 started at tick 517163125
517193125: global: Timer #2 stopped at tick 517193125. Duration: 30000
517225000: global: Timer #2 started at tick 517225000
517265000: global: Timer #2 stopped at tick 517265000. Duration: 40000
517463125: global: Timer #7 started at tick 517463125
518095875: system.acctest.grayscale0_dma: SRC:0x000000002500c020, DST:0x0000000082105b80, LEN:65536
518223750: global: Timer #7 stopped at tick 518223750. Duration: 760625
518477500: global: Timer #0 stopped at tick 518477500. Duration: 1489375
518491875: global: Number of accelerators running = 2
524380875: system.acctest.grayscale0_dma: Transfer completed in 6.285 us
524457500: global: Timer #0 started at tick 524457500
524626875: global: DAG ID = 1
524639375: global: Node ID = 1
524658750: global: Node deadline difference = -13950
524671250: global: Predicted memory time / byte = 0 us/byte
524683750: global: Predicted memory time = 0 us
524696250: global: Predicted memory time / byte = 0 us/byte
524708750: global: Predicted memory time = 0 us
524721250: global: Predicted memory time / byte = 0 us/byte
524733750: global: Predicted memory time = 0 us
524746250: global: Predicted memory time / byte = 0 us/byte
524758750: global: Predicted memory time = 0 us
524771250: global: Predicted memory access size = 0
524783750: global: Predicted memory access size = 49152
524796250: global: Predicted memory access size = 0
524808750: global: Predicted memory access size = 65536
524921875: global: Timer #0 stopped at tick 524921875. Duration: 464375
524936250: global: Number of accelerators running = 1
********************************************************************************
system.acctest.convolution0.compute
   ========= Performance Analysis =============
   Setup Time:                      0.745515seconds
   Simulation Time:                 764.027242seconds
   System Clock:                    1.000000GHz
   Transistor Latency:              1ns
   Runtime:                         1545605 cycles
   Runtime:                         1545.605000 us
   Stalls:                          0 cycles
   Executed Nodes:                  1545604 cycles

********************************************************************************
   ========= Performance Analysis =================
   Setup Time:                      745515277.000000ns
   Simulation Time:                 764027242206.000000ns
   System Clock:                    1.000000GHz
   Transistor Latency:              0ns
   Runtime:                         1545605 cycles
   Runtime:                         0.000155 seconds
   Stalls:                          0 cycles
       Load Only:                   0 cycles
       Store Only:                  0 cycles
       Compute Only:                0 cycles
       Compute & Store:             0 cycles
       Load & Store:                0 cycles
       Load & Compute:              0 cycles
       Load & Compute & Store:      0 cycles
   Executed Nodes:                  1545604 cycles
       Load Only:                   0 cycles
       Store Only:                  0 cycles
       Compute Only:                1127274 cycles
       Compute & Store:             16374 cycles
       Load & Store:                0 cycles
       Load & Compute:              401946 cycles
       Load & Compute & Store:      10 cycles

   ========= Runtime FU's ========= (Max | Avg) ===
   Counter FU's:                       3 | 0.112298
   Integer Add/Sub FU's:               4 | 0.211564
   Integer Mul/Div FU's:               1 | 0.052505
   Integer Shifter FU's:              10 | 0.005268
   Integer Bitwise FU's:               2 | 0.184266
   Floating Point Float Add/Sub:       5 | 0.207991
   Floating Point Double Add/Sub:      0 | 0.000000
   Floating Point Float Mul/Div:       2 | 0.130117
   Floating Point Double Mul/Div:      0 | 0.000000
   0 Cycle Compare FU's:              40 | 0.145956
   GEP Instruction FU's:               4 | 0.132683
   Type Conversion FU's:               7 | 0.186618

   ========= Static FU's ==========================
   Counter FU's:                    0
   Integer Add/Sub FU's:            0
   Integer Mul/Div FU's:            0
   Integer Shifter FU's:            0
   Integer Bitwise FU's:            0
   Floating Point Float Add/Sub:    0
   Floating Point Double Add/Sub:   0
   Floating Point Float Mul/Div:    0
   Floating Point Double Mul/Div:   0
   0 Cycle Compare FU's:            0
   GEP Instruction FU's:            0
   Type Conversion FU's:            0
   Other:                           0

   ========= Pipeline Register Usage =============
   Total Number of Registers:       1702
   Max Register Usage Per Cycle:    20
   Avg Register Usage Per Cycle:    6.348199
   Avg Register Size (Bytes):       5.569148

   ========= Memory Configuration =================
   Cache Bus Ports:                 0
   Shared Cache Size:               0kB
   Local Bus Ports:                 0
   Private SPM Size:                192kB
   Private Read Ports:              0
   Private Write Ports:             0
   Private Read Bus Width:          64
   Private Write Bus Width:         64
       Memory Reads:                0
       Memory Writes:               0
   ========= Power Analysis ======================
   FU Leakage Power:                0.196912 mW 
   FU Dynamic Power:                2743.028564 mW 
   FU Total Power:                  2743.225586 mW 

   Registers Leakage Power:          0.002459 mW 
   Registers Dynamic Power:          75.251152 mW 
       Register Reads (Bits):        9811808
       Register Writes (Bits):       10049727
   Registers Total Power:            75.253609 mW

   SPM Leakage Power:               0.078311 mW
   SPM Read Dynamic Power:          11.170319 mW
   SPM Write Dynamic Power:         0.953321 mW
   SPM Total Power:                 12.201951 mW

   SPM Energy Per Read Access:      0.130935 nJ
   SPM Energy Per Write Access:     0.166637 nJ

   Cache Leakage Power:             0.000000 mW
   Cache Read Dynamic Power:        0.000000 mW
   Cache Write Dynamic Power:       0.000000 mW
   Cache Total Power:               0.000000 mW

   Accelerator Power:               2818.479248 mW
   Accelerator Power (SPM):         2830.681199 mW
   Accelerator Power (Cache):       2818.479248 mW

   ========= Area Analysis =======================
   FU Area:                         22931.867188 um^2 (0.022932 mm^2)
   Register Area:                   199.868912 um^2 (0.000200 mm^2)
   SPM Area:                        1748.188735 um^2 (0.001748 mm^2)
   Cache Area:                      0.000000 um^2 (0.000000 mm^2)

   Accelerator Area:                23131.736328 um^2 (0.023132 mm^2)
   Accelerator Area (SPM):          24879.925063 um^2 (0.024880 mm^2)
   Accelerator Area (Cache):        23131.736328 um^2 (0.023132 mm^2)

   ========= SPM Resizing  =======================
   SPM Optimized Leakage Power:     0.002053 mW
   SPM Opt Area:                    145.024971 um^2

2041863750: global: Timer #0 started at tick 2041863750
2042035000: global: Timer #2 started at tick 2042035000
2042070000: global: Timer #2 stopped at tick 2042070000. Duration: 35000
2042376250: global: DAG ID = 0
2042388750: global: Node ID = 2
2042401875: global: Node deadline difference = -277
2042414375: global: Predicted memory time / byte = 0 us/byte
2042426875: global: Predicted memory time = 0 us
2042439375: global: Predicted memory time / byte = 0 us/byte
2042451875: global: Predicted memory time = 0 us
2042464375: global: Predicted memory time / byte = 0 us/byte
2042476875: global: Predicted memory time = 0 us
2042489375: global: Predicted memory time / byte = 0 us/byte
2042501875: global: Predicted memory time = 0 us
2042514375: global: Predicted memory access size = 0
2042526875: global: Predicted memory access size = 65536
2042539375: global: Predicted memory access size = 0
2042551875: global: Predicted memory access size = 0
2042609375: global: Timer #6 started at tick 2042609375
2042766250: global: Timer #7 started at tick 2042766250
2043402375: system.acctest.convolution0_dma: SRC:0x000000002500c020, DST:0x0000000022000020, LEN:65536
2043539375: global: Timer #7 stopped at tick 2043539375. Duration: 773125
2043561875: global: Timer #6 stopped at tick 2043561875. Duration: 952500
2043651875: global: Timer #6 started at tick 2043651875
2044140625: global: Timer #7 started at tick 2044140625
2044910000: system.acctest.elem_matrix0_dma: SRC:0x000000002501c020, DST:0x0000000024000020, LEN:65536
2045166875: global: Timer #7 stopped at tick 2045166875. Duration: 1026250
2045195625: global: Timer #6 stopped at tick 2045195625. Duration: 1543750
2045295000: global: Timer #0 stopped at tick 2045295000. Duration: 3431250
2045309375: global: Number of accelerators running = 2
2063199375: system.acctest.convolution0_dma: Transfer completed in 19.797 us
2063275000: global: Timer #0 started at tick 2063275000
2063431875: global: Timer #6 started at tick 2063431875
2063497500: global: Timer #7 started at tick 2063497500
2064146000: system.acctest.convolution0_dma: SRC:0x0000000082115e80, DST:0x0000000022030020, LEN:36
2064237000: system.acctest.convolution0_dma: Transfer completed in 0.091 us
2064278125: global: Timer #7 stopped at tick 2064278125. Duration: 780625
2064303125: global: Timer #6 stopped at tick 2064303125. Duration: 871250
2064416250: global: Timer #0 stopped at tick 2064416250. Duration: 1141250
2064430625: global: Number of accelerators running = 2
2064539375: global: Timer #0 started at tick 2064539375
2064691875: global: Timer #6 started at tick 2064691875
2064733750: global: Timer #7 started at tick 2064733750
2064734000: system.acctest.elem_matrix0_dma: Transfer completed in 19.824 us
2065732500: global: Timer #7 stopped at tick 2065732500. Duration: 998750
2065774375: global: Timer #6 stopped at tick 2065774375. Duration: 1082500
2065872500: global: Timer #0 stopped at tick 2065872500. Duration: 1333125
2065886875: global: Number of accelerators running = 2
2066012500: global: Timer #0 started at tick 2066012500
2066170625: global: Timer #6 started at tick 2066170625
2066718750: global: Timer #7 started at tick 2066718750
2067364500: system.acctest.elem_matrix0_dma: SRC:0x0000000022020020, DST:0x0000000024010020, LEN:65536
2067501250: global: Timer #7 stopped at tick 2067501250. Duration: 782500
2067576875: global: Timer #6 stopped at tick 2067576875. Duration: 1406250
2067667500: global: Timer #0 stopped at tick 2067667500. Duration: 1655000
2067681875: global: Number of accelerators running = 2
2077625500: system.acctest.elem_matrix0_dma: Transfer completed in 10.261 us
2077701250: global: Timer #0 started at tick 2077701250
2077858750: global: Timer #6 started at tick 2077858750
2077945625: global: Timer #7 started at tick 2077945625
2078971875: global: Timer #7 stopped at tick 2078971875. Duration: 1026250
2079222500: global: Timer #6 stopped at tick 2079222500. Duration: 1363750
2079317500: global: Timer #0 stopped at tick 2079317500. Duration: 1616250
2079331875: global: Number of accelerators running = 2
********************************************************************************
system.acctest.elem_matrix0.compute
   ========= Performance Analysis =============
   Setup Time:                      5.287357seconds
   Simulation Time:                 202.163828seconds
   System Clock:                    1.000000GHz
   Transistor Latency:              1ns
   Runtime:                         10944 cycles
   Runtime:                         10.944000 us
   Stalls:                          1 cycles
   Executed Nodes:                  10942 cycles

********************************************************************************
   ========= Performance Analysis =================
   Setup Time:                      5287357246.000000ns
   Simulation Time:                 202163827947.000000ns
   System Clock:                    1.000000GHz
   Transistor Latency:              0ns
   Runtime:                         10944 cycles
   Runtime:                         0.000001 seconds
   Stalls:                          1 cycles
       Load Only:                   0 cycles
       Store Only:                  1 cycles
       Compute Only:                0 cycles
       Compute & Store:             0 cycles
       Load & Store:                0 cycles
       Load & Compute:              0 cycles
       Load & Compute & Store:      0 cycles
   Executed Nodes:                  10942 cycles
       Load Only:                   0 cycles
       Store Only:                  16 cycles
       Compute Only:                1 cycles
       Compute & Store:             21 cycles
       Load & Store:                0 cycles
       Load & Compute:              18 cycles
       Load & Compute & Store:      10886 cycles

   ========= Runtime FU's ========= (Max | Avg) ===
   Counter FU's:                      32 | 0.046786
   Integer Add/Sub FU's:               0 | 0.000000
   Integer Mul/Div FU's:               0 | 0.000000
   Integer Shifter FU's:               0 | 0.000000
   Integer Bitwise FU's:               1 | 0.000091
   Floating Point Float Add/Sub:       0 | 0.000000
   Floating Point Double Add/Sub:      0 | 0.000000
   Floating Point Float Mul/Div:       0 | 0.000000
   Floating Point Double Mul/Div:      0 | 0.000000
   0 Cycle Compare FU's:             102 | 0.047066
   GEP Instruction FU's:              96 | 0.046784
   Type Conversion FU's:               7 | 0.006775

   ========= Static FU's ==========================
   Counter FU's:                    0
   Integer Add/Sub FU's:            0
   Integer Mul/Div FU's:            0
   Integer Shifter FU's:            0
   Integer Bitwise FU's:            0
   Floating Point Float Add/Sub:    0
   Floating Point Double Add/Sub:   0
   Floating Point Float Mul/Div:    0
   Floating Point Double Mul/Div:   0
   0 Cycle Compare FU's:            0
   GEP Instruction FU's:            0
   Type Conversion FU's:            0
   Other:                           0

   ========= Pipeline Register Usage =============
   Total Number of Registers:       5641
   Max Register Usage Per Cycle:    137
   Avg Register Usage Per Cycle:    12.117690
   Avg Register Size (Bytes):       5.980606

   ========= Memory Configuration =================
   Cache Bus Ports:                 0
   Shared Cache Size:               0kB
   Local Bus Ports:                 0
   Private SPM Size:                256kB
   Private Read Ports:              0
   Private Write Ports:             0
   Private Read Bus Width:          64
   Private Write Bus Width:         64
       Memory Reads:                0
       Memory Writes:               0
   ========= Power Analysis ======================
   FU Leakage Power:                0.000611 mW 
   FU Dynamic Power:                0.036818 mW 
   FU Total Power:                  0.037429 mW 

   Registers Leakage Power:          0.005281 mW 
   Registers Dynamic Power:          0.015342 mW 
       Register Reads (Bits):        132616
       Register Writes (Bits):       133658
   Registers Total Power:            0.020624 mW

   SPM Leakage Power:               0.104100 mW
   SPM Read Dynamic Power:          1.997266 mW
   SPM Write Dynamic Power:         0.953321 mW
   SPM Total Power:                 3.054688 mW

   SPM Energy Per Read Access:      0.170493 nJ
   SPM Energy Per Write Access:     0.218190 nJ

   Cache Leakage Power:             0.000000 mW
   Cache Read Dynamic Power:        0.000000 mW
   Cache Write Dynamic Power:       0.000000 mW
   Cache Total Power:               0.000000 mW

   Accelerator Power:               0.058053 mW
   Accelerator Power (SPM):         3.112741 mW
   Accelerator Power (Cache):       0.058053 mW

   ========= Area Analysis =======================
   FU Area:                         50.369961 um^2 (0.000050 mm^2)
   Register Area:                   429.271088 um^2 (0.000429 mm^2)
   SPM Area:                        2177.365505 um^2 (0.002177 mm^2)
   Cache Area:                      0.000000 um^2 (0.000000 mm^2)

   Accelerator Area:                479.641052 um^2 (0.000480 mm^2)
   Accelerator Area (SPM):          2657.006557 um^2 (0.002657 mm^2)
   Accelerator Area (Cache):        479.641052 um^2 (0.000480 mm^2)

   ========= SPM Resizing  =======================
   SPM Optimized Leakage Power:     0.004248 mW
   SPM Opt Area:                    178.524902 um^2

2089865000: global: Timer #0 started at tick 2089865000
2090107500: global: Timer #2 started at tick 2090107500
2090142500: global: Timer #2 stopped at tick 2090142500. Duration: 35000
2090280000: global: Timer #7 started at tick 2090280000
2090925875: system.acctest.elem_matrix0_dma: SRC:0x0000000024030020, DST:0x00000000820a2e00, LEN:65536
2091073750: global: Timer #7 stopped at tick 2091073750. Duration: 793750
2091351875: global: Timer #0 stopped at tick 2091351875. Duration: 1486875
2091366250: global: Number of accelerators running = 2
2097269875: system.acctest.elem_matrix0_dma: Transfer completed in 6.344 us
2097345000: global: Timer #0 started at tick 2097345000
2097515000: global: DAG ID = 0
2097527500: global: Node ID = 3
2097561875: global: Node deadline difference = -279
2097574375: global: Predicted memory time / byte = 0 us/byte
2097586875: global: Predicted memory time = 0 us
2097599375: global: Predicted memory time / byte = 0 us/byte
2097611875: global: Predicted memory time = 0 us
2097624375: global: Predicted memory time / byte = 0 us/byte
2097636875: global: Predicted memory time = 0 us
2097649375: global: Predicted memory time / byte = 0 us/byte
2097661875: global: Predicted memory time = 0 us
2097674375: global: Predicted memory access size = 0
2097686875: global: Predicted memory access size = 131072
2097699375: global: Predicted memory access size = 0
2097711875: global: Predicted memory access size = 65536
2097816875: global: Timer #0 stopped at tick 2097816875. Duration: 471875
2097831250: global: Number of accelerators running = 1
********************************************************************************
system.acctest.convolution0.compute
   ========= Performance Analysis =============
   Setup Time:                      0.754415seconds
   Simulation Time:                 319.926402seconds
   System Clock:                    1.000000GHz
   Transistor Latency:              1ns
   Runtime:                         637329 cycles
   Runtime:                         637.329000 us
   Stalls:                          7 cycles
   Executed Nodes:                  637321 cycles

********************************************************************************
   ========= Performance Analysis =================
   Setup Time:                      754415311.000000ns
   Simulation Time:                 319926402139.000000ns
   System Clock:                    1.000000GHz
   Transistor Latency:              0ns
   Runtime:                         637329 cycles
   Runtime:                         0.000064 seconds
   Stalls:                          7 cycles
       Load Only:                   0 cycles
       Store Only:                  1 cycles
       Compute Only:                6 cycles
       Compute & Store:             0 cycles
       Load & Store:                0 cycles
       Load & Compute:              0 cycles
       Load & Compute & Store:      0 cycles
   Executed Nodes:                  637321 cycles
       Load Only:                   0 cycles
       Store Only:                  1 cycles
       Compute Only:                475396 cycles
       Compute & Store:             15997 cycles
       Load & Store:                0 cycles
       Load & Compute:              145541 cycles
       Load & Compute & Store:      386 cycles

   ========= Runtime FU's ========= (Max | Avg) ===
   Counter FU's:                       3 | 0.119701
   Integer Add/Sub FU's:               4 | 0.197730
   Integer Mul/Div FU's:               1 | 0.076720
   Integer Shifter FU's:              10 | 0.007714
   Integer Bitwise FU's:               2 | 0.192204
   Floating Point Float Add/Sub:       5 | 0.161846
   Floating Point Double Add/Sub:      0 | 0.000000
   Floating Point Float Mul/Div:       2 | 0.114483
   Floating Point Double Mul/Div:      0 | 0.000000
   0 Cycle Compare FU's:              40 | 0.135831
   GEP Instruction FU's:               2 | 0.241815
   Type Conversion FU's:              10 | 0.163610

   ========= Static FU's ==========================
   Counter FU's:                    0
   Integer Add/Sub FU's:            0
   Integer Mul/Div FU's:            0
   Integer Shifter FU's:            0
   Integer Bitwise FU's:            0
   Floating Point Float Add/Sub:    0
   Floating Point Double Add/Sub:   0
   Floating Point Float Mul/Div:    0
   Floating Point Double Mul/Div:   0
   0 Cycle Compare FU's:            0
   GEP Instruction FU's:            0
   Type Conversion FU's:            0
   Other:                           0

   ========= Pipeline Register Usage =============
   Total Number of Registers:       1702
   Max Register Usage Per Cycle:    18
   Avg Register Usage Per Cycle:    6.079275
   Avg Register Size (Bytes):       5.490795

   ========= Memory Configuration =================
   Cache Bus Ports:                 0
   Shared Cache Size:               0kB
   Local Bus Ports:                 0
   Private SPM Size:                192kB
   Private Read Ports:              0
   Private Write Ports:             0
   Private Read Bus Width:          64
   Private Write Bus Width:         64
       Memory Reads:                0
       Memory Writes:               0
   ========= Power Analysis ======================
   FU Leakage Power:                0.196912 mW 
   FU Dynamic Power:                392.655670 mW 
   FU Total Power:                  392.852570 mW 

   Registers Leakage Power:          0.002424 mW 
   Registers Dynamic Power:          12.192513 mW 
       Register Reads (Bits):        3874498
       Register Writes (Bits):       4041055
   Registers Total Power:            12.194937 mW

   SPM Leakage Power:               0.078311 mW
   SPM Read Dynamic Power:          13.301967 mW
   SPM Write Dynamic Power:         2.044305 mW
   SPM Total Power:                 15.424582 mW

   SPM Energy Per Read Access:      0.130935 nJ
   SPM Energy Per Write Access:     0.166637 nJ

   Cache Leakage Power:             0.000000 mW
   Cache Read Dynamic Power:        0.000000 mW
   Cache Write Dynamic Power:       0.000000 mW
   Cache Total Power:               0.000000 mW

   Accelerator Power:               405.047516 mW
   Accelerator Power (SPM):         420.472098 mW
   Accelerator Power (Cache):       405.047516 mW

   ========= Area Analysis =======================
   FU Area:                         22931.867188 um^2 (0.022932 mm^2)
   Register Area:                   197.056931 um^2 (0.000197 mm^2)
   SPM Area:                        1748.188735 um^2 (0.001748 mm^2)
   Cache Area:                      0.000000 um^2 (0.000000 mm^2)

   Accelerator Area:                23128.923828 um^2 (0.023129 mm^2)
   Accelerator Area (SPM):          24877.112563 um^2 (0.024877 mm^2)
   Accelerator Area (Cache):        23128.923828 um^2 (0.023129 mm^2)

   ========= SPM Resizing  =======================
   SPM Optimized Leakage Power:     0.002053 mW
   SPM Opt Area:                    145.024971 um^2

2703033750: global: Timer #0 started at tick 2703033750
2703198125: global: Timer #2 started at tick 2703198125
2703225625: global: Timer #2 stopped at tick 2703225625. Duration: 27500
2703470625: global: Timer #7 started at tick 2703470625
2704122375: system.acctest.convolution0_dma: SRC:0x0000000022010020, DST:0x0000000082115f00, LEN:65536
2704271250: global: Timer #7 stopped at tick 2704271250. Duration: 800625
2704540000: global: Timer #6 started at tick 2704540000
2704688125: global: Timer #7 started at tick 2704688125
2705358000: system.acctest.elem_matrix0_dma: SRC:0x0000000022010020, DST:0x0000000024000020, LEN:65536
2705493125: global: Timer #7 stopped at tick 2705493125. Duration: 805000
2705515625: global: Timer #6 stopped at tick 2705515625. Duration: 975625
2705605000: global: Timer #0 stopped at tick 2705605000. Duration: 2571250
2705619375: global: Number of accelerators running = 2
2716315375: system.acctest.convolution0_dma: Transfer completed in 12.193 us
2716391250: global: Timer #0 started at tick 2716391250
2716565000: global: DAG ID = 1
2716577500: global: Node ID = 2
2716604375: global: Node deadline difference = -12426
2716616875: global: Predicted memory time / byte = 0 us/byte
2716629375: global: Predicted memory time = 0 us
2716641875: global: Predicted memory time / byte = 0 us/byte
2716654375: global: Predicted memory time = 0 us
2716666875: global: Predicted memory time / byte = 0 us/byte
2716679375: global: Predicted memory time = 0 us
2716691875: global: Predicted memory time / byte = 0 us/byte
2716704375: global: Predicted memory time = 0 us
2716716875: global: Predicted memory access size = 0
2716729375: global: Predicted memory access size = 65536
2716741875: global: Predicted memory access size = 0
2716754375: global: Predicted memory access size = 65536
2716826875: global: Timer #6 started at tick 2716826875
2716913125: global: Timer #7 started at tick 2716913125
2717550000: system.acctest.convolution0_dma: SRC:0x000000002500c020, DST:0x0000000022000020, LEN:65536
2717680000: global: Timer #7 stopped at tick 2717680000. Duration: 766875
2717698125: global: Timer #6 stopped at tick 2717698125. Duration: 871250
2717835000: global: Timer #0 stopped at tick 2717835000. Duration: 1443750
2717849375: global: Number of accelerators running = 2
2720048000: system.acctest.elem_matrix0_dma: Transfer completed in 14.69 us
2720133125: global: Timer #0 started at tick 2720133125
2720292500: global: Timer #6 started at tick 2720292500
2720362500: global: Timer #7 started at tick 2720362500
2721406250: global: Timer #7 stopped at tick 2721406250. Duration: 1043750
2721461875: global: Timer #6 stopped at tick 2721461875. Duration: 1169375
2721563125: global: Timer #0 stopped at tick 2721563125. Duration: 1430000
2721577500: global: Number of accelerators running = 2
2728866000: system.acctest.convolution0_dma: Transfer completed in 11.316 us
2728942500: global: Timer #0 started at tick 2728942500
2729090000: global: Timer #6 started at tick 2729090000
2729131875: global: Timer #7 started at tick 2729131875
********************************************************************************
system.acctest.elem_matrix0.compute
   ========= Performance Analysis =============
   Setup Time:                      10.320906seconds
   Simulation Time:                 149.355446seconds
   System Clock:                    1.000000GHz
   Transistor Latency:              1ns
   Runtime:                         8199 cycles
   Runtime:                         8.199000 us
   Stalls:                          2729 cycles
   Executed Nodes:                  5469 cycles

********************************************************************************
   ========= Performance Analysis =================
   Setup Time:                      10320906075.000000ns
   Simulation Time:                 149355445818.000000ns
   System Clock:                    1.000000GHz
   Transistor Latency:              0ns
   Runtime:                         8199 cycles
   Runtime:                         0.000001 seconds
   Stalls:                          2729 cycles
       Load Only:                   0 cycles
       Store Only:                  2729 cycles
       Compute Only:                0 cycles
       Compute & Store:             0 cycles
       Load & Store:                0 cycles
       Load & Compute:              0 cycles
       Load & Compute & Store:      0 cycles
   Executed Nodes:                  5469 cycles
       Load Only:                   0 cycles
       Store Only:                  4 cycles
       Compute Only:                1 cycles
       Compute & Store:             11 cycles
       Load & Store:                0 cycles
       Load & Compute:              6 cycles
       Load & Compute & Store:      5447 cycles

   ========= Runtime FU's ========= (Max | Avg) ===
   Counter FU's:                      32 | 0.062450
   Integer Add/Sub FU's:               0 | 0.000000
   Integer Mul/Div FU's:               0 | 0.000000
   Integer Shifter FU's:               0 | 0.000000
   Integer Bitwise FU's:               1 | 0.000122
   Floating Point Float Add/Sub:       0 | 0.000000
   Floating Point Double Add/Sub:      0 | 0.000000
   Floating Point Float Mul/Div:      35 | 0.057652
   Floating Point Double Mul/Div:      0 | 0.000000
   0 Cycle Compare FU's:              15 | 0.025182
   GEP Instruction FU's:              64 | 0.062447
   Type Conversion FU's:               7 | 0.009043

   ========= Static FU's ==========================
   Counter FU's:                    0
   Integer Add/Sub FU's:            0
   Integer Mul/Div FU's:            0
   Integer Shifter FU's:            0
   Integer Bitwise FU's:            0
   Floating Point Float Add/Sub:    0
   Floating Point Double Add/Sub:   0
   Floating Point Float Mul/Div:    0
   Floating Point Double Mul/Div:   0
   0 Cycle Compare FU's:            0
   GEP Instruction FU's:            0
   Type Conversion FU's:            0
   Other:                           0

   ========= Pipeline Register Usage =============
   Total Number of Registers:       5641
   Max Register Usage Per Cycle:    104
   Avg Register Usage Per Cycle:    10.117331
   Avg Register Size (Bytes):       6.376398

   ========= Memory Configuration =================
   Cache Bus Ports:                 0
   Shared Cache Size:               0kB
   Local Bus Ports:                 0
   Private SPM Size:                256kB
   Private Read Ports:              0
   Private Write Ports:             0
   Private Read Bus Width:          64
   Private Write Bus Width:         64
       Memory Reads:                0
       Memory Writes:               0
   ========= Power Analysis ======================
   FU Leakage Power:                0.045377 mW 
   FU Dynamic Power:                0.051978 mW 
   FU Total Power:                  0.097355 mW 

   Registers Leakage Power:          0.004692 mW 
   Registers Dynamic Power:          0.006422 mW 
       Register Reads (Bits):        82952
       Register Writes (Bits):       84505
   Registers Total Power:            0.011115 mW

   SPM Leakage Power:               0.104100 mW
   SPM Read Dynamic Power:          2.386224 mW
   SPM Write Dynamic Power:         2.044305 mW
   SPM Total Power:                 4.534629 mW

   SPM Energy Per Read Access:      0.170493 nJ
   SPM Energy Per Write Access:     0.218190 nJ

   Cache Leakage Power:             0.000000 mW
   Cache Read Dynamic Power:        0.000000 mW
   Cache Write Dynamic Power:       0.000000 mW
   Cache Total Power:               0.000000 mW

   Accelerator Power:               0.108470 mW
   Accelerator Power (SPM):         4.643099 mW
   Accelerator Power (Cache):       0.108470 mW

   ========= Area Analysis =======================
   FU Area:                         5472.068359 um^2 (0.005472 mm^2)
   Register Area:                   381.399994 um^2 (0.000381 mm^2)
   SPM Area:                        2177.365505 um^2 (0.002177 mm^2)
   Cache Area:                      0.000000 um^2 (0.000000 mm^2)

   Accelerator Area:                5853.468262 um^2 (0.005853 mm^2)
   Accelerator Area (SPM):          8030.833767 um^2 (0.008031 mm^2)
   Accelerator Area (Cache):        5853.468262 um^2 (0.005853 mm^2)

   ========= SPM Resizing  =======================
   SPM Optimized Leakage Power:     0.003237 mW
   SPM Opt Area:                    162.973445 um^2

2729770875: system.acctest.convolution0_dma: SRC:0x0000000082115ec0, DST:0x0000000022030020, LEN:36
2729857875: system.acctest.convolution0_dma: Transfer completed in 0.087 us
2729895000: global: Timer #7 stopped at tick 2729895000. Duration: 763125
2729920000: global: Timer #6 stopped at tick 2729920000. Duration: 830000
2730010625: global: Timer #0 stopped at tick 2730010625. Duration: 1068125
2730025000: global: Number of accelerators running = 2
2730141875: global: Timer #0 started at tick 2730141875
2730381875: global: Timer #2 started at tick 2730381875
2730415000: global: Timer #2 stopped at tick 2730415000. Duration: 33125
2730506875: global: Timer #7 started at tick 2730506875
2731143750: system.acctest.elem_matrix0_dma: SRC:0x0000000024020020, DST:0x00000000821367c0, LEN:65536
2731271875: global: Timer #7 stopped at tick 2731271875. Duration: 765000
2731496250: global: Timer #0 stopped at tick 2731496250. Duration: 1354375
2731510625: global: Number of accelerators running = 2
2731628125: global: Timer #0 started at tick 2731628125
2731790000: global: Timer #6 started at tick 2731790000
2731831875: global: Timer #7 started at tick 2731831875
2732882500: global: Timer #7 stopped at tick 2732882500. Duration: 1050625
2732918750: global: Timer #6 stopped at tick 2732918750. Duration: 1128750
2733008750: global: Timer #0 stopped at tick 2733008750. Duration: 1380625
2733023125: global: Number of accelerators running = 2
2737497750: system.acctest.elem_matrix0_dma: Transfer completed in 6.354 us
2737583125: global: Timer #0 started at tick 2737583125
2737755625: global: DAG ID = 1
2737768125: global: Node ID = 4
2737790625: global: Node deadline difference = -12445
2737803125: global: Predicted memory time / byte = 0 us/byte
2737815625: global: Predicted memory time = 0 us
2737828125: global: Predicted memory time / byte = 0 us/byte
2737840625: global: Predicted memory time = 0 us
2737853125: global: Predicted memory time / byte = 0 us/byte
2737865625: global: Predicted memory time = 0 us
2737878125: global: Predicted memory time / byte = 0 us/byte
2737890625: global: Predicted memory time = 0 us
2737903125: global: Predicted memory access size = 0
2737915625: global: Predicted memory access size = 65536
2737928125: global: Predicted memory access size = 0
2737940625: global: Predicted memory access size = 65536
2738042500: global: Timer #0 stopped at tick 2738042500. Duration: 459375
2738056875: global: Number of accelerators running = 1
********************************************************************************
system.acctest.convolution0.compute
   ========= Performance Analysis =============
   Setup Time:                      1.121373seconds
   Simulation Time:                 153.870293seconds
   System Clock:                    1.000000GHz
   Transistor Latency:              1ns
   Runtime:                         637329 cycles
   Runtime:                         637.329000 us
   Stalls:                          7 cycles
   Executed Nodes:                  637321 cycles

********************************************************************************
   ========= Performance Analysis =================
   Setup Time:                      1121373456.000000ns
   Simulation Time:                 153870292857.000000ns
   System Clock:                    1.000000GHz
   Transistor Latency:              0ns
   Runtime:                         637329 cycles
   Runtime:                         0.000064 seconds
   Stalls:                          7 cycles
       Load Only:                   0 cycles
       Store Only:                  1 cycles
       Compute Only:                6 cycles
       Compute & Store:             0 cycles
       Load & Store:                0 cycles
       Load & Compute:              0 cycles
       Load & Compute & Store:      0 cycles
   Executed Nodes:                  637321 cycles
       Load Only:                   0 cycles
       Store Only:                  1 cycles
       Compute Only:                475397 cycles
       Compute & Store:             15999 cycles
       Load & Store:                0 cycles
       Load & Compute:              145540 cycles
       Load & Compute & Store:      384 cycles

   ========= Runtime FU's ========= (Max | Avg) ===
   Counter FU's:                       3 | 0.119701
   Integer Add/Sub FU's:               4 | 0.197730
   Integer Mul/Div FU's:               1 | 0.076720
   Integer Shifter FU's:              10 | 0.007714
   Integer Bitwise FU's:               2 | 0.192204
   Floating Point Float Add/Sub:       4 | 0.202424
   Floating Point Double Add/Sub:      0 | 0.000000
   Floating Point Float Mul/Div:       2 | 0.114482
   Floating Point Double Mul/Div:      0 | 0.000000
   0 Cycle Compare FU's:              40 | 0.135811
   GEP Instruction FU's:               2 | 0.241815
   Type Conversion FU's:               9 | 0.181785

   ========= Static FU's ==========================
   Counter FU's:                    0
   Integer Add/Sub FU's:            0
   Integer Mul/Div FU's:            0
   Integer Shifter FU's:            0
   Integer Bitwise FU's:            0
   Floating Point Float Add/Sub:    0
   Floating Point Double Add/Sub:   0
   Floating Point Float Mul/Div:    0
   Floating Point Double Mul/Div:   0
   0 Cycle Compare FU's:            0
   GEP Instruction FU's:            0
   Type Conversion FU's:            0
   Other:                           0

   ========= Pipeline Register Usage =============
   Total Number of Registers:       1702
   Max Register Usage Per Cycle:    17
   Avg Register Usage Per Cycle:    6.079275
   Avg Register Size (Bytes):       5.490795

   ========= Memory Configuration =================
   Cache Bus Ports:                 0
   Shared Cache Size:               0kB
   Local Bus Ports:                 0
   Private SPM Size:                192kB
   Private Read Ports:              0
   Private Write Ports:             0
   Private Read Bus Width:          64
   Private Write Bus Width:         64
       Memory Reads:                0
       Memory Writes:               0
   ========= Power Analysis ======================
   FU Leakage Power:                0.181658 mW 
   FU Dynamic Power:                392.771942 mW 
   FU Total Power:                  392.953613 mW 

   Registers Leakage Power:          0.002424 mW 
   Registers Dynamic Power:          12.192513 mW 
       Register Reads (Bits):        3874498
       Register Writes (Bits):       4041055
   Registers Total Power:            12.194937 mW

   SPM Leakage Power:               0.078311 mW
   SPM Read Dynamic Power:          14.889326 mW
   SPM Write Dynamic Power:         2.457440 mW
   SPM Total Power:                 17.425076 mW

   SPM Energy Per Read Access:      0.130935 nJ
   SPM Energy Per Write Access:     0.166637 nJ

   Cache Leakage Power:             0.000000 mW
   Cache Read Dynamic Power:        0.000000 mW
   Cache Write Dynamic Power:       0.000000 mW
   Cache Total Power:               0.000000 mW

   Accelerator Power:               405.148560 mW
   Accelerator Power (SPM):         422.573636 mW
   Accelerator Power (Cache):       405.148560 mW

   ========= Area Analysis =======================
   FU Area:                         20868.273438 um^2 (0.020868 mm^2)
   Register Area:                   197.056931 um^2 (0.000197 mm^2)
   SPM Area:                        1748.188735 um^2 (0.001748 mm^2)
   Cache Area:                      0.000000 um^2 (0.000000 mm^2)

   Accelerator Area:                21065.330078 um^2 (0.021065 mm^2)
   Accelerator Area (SPM):          22813.518813 um^2 (0.022814 mm^2)
   Accelerator Area (Cache):        21065.330078 um^2 (0.021065 mm^2)

   ========= SPM Resizing  =======================
   SPM Optimized Leakage Power:     0.002053 mW
   SPM Opt Area:                    145.024971 um^2

3370178750: global: Timer #0 started at tick 3370178750
3370418750: global: Timer #2 started at tick 3370418750
3370448125: global: Timer #2 stopped at tick 3370448125. Duration: 29375
3370473125: global: Timer #2 started at tick 3370473125
3370506250: global: Timer #2 stopped at tick 3370506250. Duration: 33125
3370665000: global: Timer #7 started at tick 3370665000
3371303750: system.acctest.convolution0_dma: SRC:0x0000000022020020, DST:0x0000000082125f00, LEN:65536
3371431875: global: Timer #7 stopped at tick 3371431875. Duration: 766875
3371637500: global: Timer #6 started at tick 3371637500
3371752500: global: Timer #7 started at tick 3371752500
3372416000: system.acctest.elem_matrix0_dma: SRC:0x0000000022010020, DST:0x0000000024000020, LEN:65536
3372543750: global: Timer #7 stopped at tick 3372543750. Duration: 791250
3372558750: global: Timer #6 stopped at tick 3372558750. Duration: 921250
3372630625: global: Timer #0 stopped at tick 3372630625. Duration: 2451875
3372645000: global: Number of accelerators running = 2
3382934750: system.acctest.convolution0_dma: Transfer completed in 11.631 us
3383010000: global: Timer #0 started at tick 3383010000
3383180625: global: DAG ID = 1
3383193125: global: Node ID = 3
3383212500: global: Node deadline difference = -11759
3383225000: global: Predicted memory time / byte = 0 us/byte
3383237500: global: Predicted memory time = 0 us
3383250000: global: Predicted memory time / byte = 0 us/byte
3383262500: global: Predicted memory time = 0 us
3383275000: global: Predicted memory time / byte = 0 us/byte
3383287500: global: Predicted memory time = 0 us
3383300000: global: Predicted memory time / byte = 0 us/byte
3383312500: global: Predicted memory time = 0 us
3383325000: global: Predicted memory access size = 0
3383337500: global: Predicted memory access size = 65536
3383350000: global: Predicted memory access size = 0
3383362500: global: Predicted memory access size = 65536
3383428125: global: Timer #6 started at tick 3383428125
3383478125: global: Timer #6 stopped at tick 3383478125. Duration: 50000
3383600625: global: Timer #0 stopped at tick 3383600625. Duration: 590625
3383615000: global: Number of accelerators running = 1
3386335000: system.acctest.elem_matrix0_dma: Transfer completed in 13.919 us
3386418750: global: Timer #0 started at tick 3386418750
3386571250: global: Timer #6 started at tick 3386571250
3386723750: global: Timer #7 started at tick 3386723750
3387369500: system.acctest.elem_matrix0_dma: SRC:0x0000000022020020, DST:0x0000000024010020, LEN:65536
3387498750: global: Timer #7 stopped at tick 3387498750. Duration: 775000
3387524375: global: Timer #6 stopped at tick 3387524375. Duration: 953125
3387571250: global: Timer #6 started at tick 3387571250
3387615625: global: Timer #6 stopped at tick 3387615625. Duration: 44375
3387713125: global: Timer #0 stopped at tick 3387713125. Duration: 1294375
3387727500: global: Number of accelerators running = 1
3397630500: system.acctest.elem_matrix0_dma: Transfer completed in 10.261 us
3397706250: global: Timer #0 started at tick 3397706250
3397858125: global: Timer #6 started at tick 3397858125
3397926250: global: Timer #7 started at tick 3397926250
3398943125: global: Timer #7 stopped at tick 3398943125. Duration: 1016875
3399015000: global: Timer #6 stopped at tick 3399015000. Duration: 1156875
3399055625: global: Timer #6 started at tick 3399055625
3399137500: global: Timer #7 started at tick 3399137500
3399767375: system.acctest.convolution0_dma: SRC:0x00000000820a2e00, DST:0x0000000022000020, LEN:65536
3399890625: global: Timer #7 stopped at tick 3399890625. Duration: 753125
3399908750: global: Timer #6 stopped at tick 3399908750. Duration: 853125
3400019375: global: Timer #0 stopped at tick 3400019375. Duration: 2313125
3400033750: global: Number of accelerators running = 2
********************************************************************************
system.acctest.elem_matrix0.compute
   ========= Performance Analysis =============
   Setup Time:                      6.060712seconds
   Simulation Time:                 200.695185seconds
   System Clock:                    1.000000GHz
   Transistor Latency:              1ns
   Runtime:                         10932 cycles
   Runtime:                         10.932000 us
   Stalls:                          1 cycles
   Executed Nodes:                  10930 cycles

[...]
   Private Read Ports:              0
   Private Write Ports:             0
   Private Read Bus Width:          64
   Private Write Bus Width:         64
       Memory Reads:                0
       Memory Writes:               0
   ========= Power Analysis ======================
   FU Leakage Power:                0.000611 mW 
   FU Dynamic Power:                0.036818 mW 
   FU Total Power:                  0.037429 mW 

   Registers Leakage Power:          0.005281 mW 
   Registers Dynamic Power:          0.015342 mW 
       Register Reads (Bits):        132616
       Register Writes (Bits):       133658
   Registers Total Power:            0.020624 mW

   SPM Leakage Power:               0.104100 mW
   SPM Read Dynamic Power:          9.558896 mW
   SPM Write Dynamic Power:         7.961824 mW
   SPM Total Power:                 17.624820 mW

   SPM Energy Per Read Access:      0.170493 nJ
   SPM Energy Per Write Access:     0.218190 nJ

   Cache Leakage Power:             0.000000 mW
   Cache Read Dynamic Power:        0.000000 mW
   Cache Write Dynamic Power:       0.000000 mW
   Cache Total Power:               0.000000 mW

   Accelerator Power:               0.058053 mW
   Accelerator Power (SPM):         17.682873 mW
   Accelerator Power (Cache):       0.058053 mW

   ========= Area Analysis =======================
   FU Area:                         50.369961 um^2 (0.000050 mm^2)
   Register Area:                   429.271088 um^2 (0.000429 mm^2)
   SPM Area:                        2177.365505 um^2 (0.002177 mm^2)
   Cache Area:                      0.000000 um^2 (0.000000 mm^2)

   Accelerator Area:                479.641052 um^2 (0.000480 mm^2)
   Accelerator Area (SPM):          2657.006557 um^2 (0.002657 mm^2)
   Accelerator Area (Cache):        479.641052 um^2 (0.000480 mm^2)

   ========= SPM Resizing  =======================
   SPM Optimized Leakage Power:     0.004248 mW
   SPM Opt Area:                    178.524902 um^2

20857995000: global: Timer #0 started at tick 20857995000
20858275000: global: Timer #2 started at tick 20858275000
20858304375: global: Timer #2 stopped at tick 20858304375. Duration: 29375
20858521250: global: DAG ID = 0
20858533750: global: Node ID = 19
20858546875: global: Node deadline difference = 5414
20858559375: global: Predicted memory time / byte = 0 us/byte
20858571875: global: Predicted memory time = 0 us
20858584375: global: Predicted memory time / byte = 0 us/byte
20858596875: global: Predicted memory time = 0 us
20858609375: global: Predicted memory time / byte = 0 us/byte
20858621875: global: Predicted memory time = 0 us
20858634375: global: Predicted memory time / byte = 0 us/byte
20858646875: global: Predicted memory time = 0 us
20858659375: global: Predicted memory access size = 0
20858671875: global: Predicted memory access size = 131072
20858684375: global: Predicted memory access size = 0
20858696875: global: Predicted memory access size = 0
20858755000: global: Timer #6 started at tick 20858755000
20858831875: global: Timer #7 started at tick 20858831875
20859460875: system.acctest.convolution0_dma: SRC:0x0000000024030020, DST:0x0000000022000020, LEN:65536
20859590000: global: Timer #7 stopped at tick 20859590000. Duration: 758125
20859605000: global: Timer #6 stopped at tick 20859605000. Duration: 850000
20859696250: global: Timer #0 stopped at tick 20859696250. Duration: 1701250
20859710625: global: Number of accelerators running = 1
20869721875: system.acctest.convolution0_dma: Transfer completed in 10.261 us
20869806250: global: Timer #0 started at tick 20869806250
20869953125: global: Timer #6 started at tick 20869953125
20869995000: global: Timer #7 started at tick 20869995000
20870629500: system.acctest.convolution0_dma: SRC:0x0000000082092940, DST:0x0000000022030020, LEN:100
20870725500: system.acctest.convolution0_dma: Transfer completed in 0.096 us
20870753750: global: Timer #7 stopped at tick 20870753750. Duration: 758750
20870773750: global: Timer #6 stopped at tick 20870773750. Duration: 820625
20870867500: global: Timer #0 stopped at tick 20870867500. Duration: 1061250
20870881875: global: Number of accelerators running = 1
20870990000: global: Timer #0 started at tick 20870990000
20871135000: global: Timer #6 started at tick 20871135000
20871176875: global: Timer #7 started at tick 20871176875
20872172500: global: Timer #7 stopped at tick 20872172500. Duration: 995625
20872208750: global: Timer #6 stopped at tick 20872208750. Duration: 1073750
20872290625: global: Timer #0 stopped at tick 20872290625. Duration: 1300625
20872305000: global: Number of accelerators running = 1
********************************************************************************
system.acctest.convolution0.compute
   ========= Performance Analysis =============
   Setup Time:                      0.630839seconds
   Simulation Time:                 278.690989seconds
   System Clock:                    1.000000GHz
   Transistor Latency:              1ns
   Runtime:                         1545605 cycles
   Runtime:                         1545.605000 us
   Stalls:                          0 cycles
   Executed Nodes:                  1545604 cycles

********************************************************************************
   ========= Performance Analysis =================
   Setup Time:                      630839099.000000ns
   Simulation Time:                 278690989102.000000ns
   System Clock:                    1.000000GHz
   Transistor Latency:              0ns
   Runtime:                         1545605 cycles
   Runtime:                         0.000155 seconds
   Stalls:                          0 cycles
       Load Only:                   0 cycles
       Store Only:                  0 cycles
       Compute Only:                0 cycles
       Compute & Store:             0 cycles
       Load & Store:                0 cycles
       Load & Compute:              0 cycles
       Load & Compute & Store:      0 cycles
   Executed Nodes:                  1545604 cycles
       Load Only:                   0 cycles
       Store Only:                  0 cycles
       Compute Only:                1127274 cycles
       Compute & Store:             16374 cycles
       Load & Store:                0 cycles
       Load & Compute:              401946 cycles
       Load & Compute & Store:      10 cycles

   ========= Runtime FU's ========= (Max | Avg) ===
   Counter FU's:                       3 | 0.112298
   Integer Add/Sub FU's:               4 | 0.211564
   Integer Mul/Div FU's:               1 | 0.052505
   Integer Shifter FU's:              10 | 0.005268
   Integer Bitwise FU's:               2 | 0.184266
   Floating Point Float Add/Sub:       5 | 0.207991
   Floating Point Double Add/Sub:      0 | 0.000000
   Floating Point Float Mul/Div:       2 | 0.130117
   Floating Point Double Mul/Div:      0 | 0.000000
   0 Cycle Compare FU's:              40 | 0.145956
   GEP Instruction FU's:               4 | 0.132683
   Type Conversion FU's:               7 | 0.186618

   ========= Static FU's ==========================
   Counter FU's:                    0
   Integer Add/Sub FU's:            0
   Integer Mul/Div FU's:            0
   Integer Shifter FU's:            0
   Integer Bitwise FU's:            0
   Floating Point Float Add/Sub:    0
   Floating Point Double Add/Sub:   0
   Floating Point Float Mul/Div:    0
   Floating Point Double Mul/Div:   0
   0 Cycle Compare FU's:            0
   GEP Instruction FU's:            0
   Type Conversion FU's:            0
   Other:                           0

   ========= Pipeline Register Usage =============
   Total Number of Registers:       1702
   Max Register Usage Per Cycle:    20
   Avg Register Usage Per Cycle:    6.348199
   Avg Register Size (Bytes):       5.569148

   ========= Memory Configuration =================
   Cache Bus Ports:                 0
   Shared Cache Size:               0kB
   Local Bus Ports:                 0
   Private SPM Size:                192kB
   Private Read Ports:              0
   Private Write Ports:             0
   Private Read Bus Width:          64
   Private Write Bus Width:         64
       Memory Reads:                0
       Memory Writes:               0
   ========= Power Analysis ======================
   FU Leakage Power:                0.196912 mW 
   FU Dynamic Power:                2743.028564 mW 
   FU Total Power:                  2743.225586 mW 

   Registers Leakage Power:          0.002459 mW 
   Registers Dynamic Power:          75.251152 mW 
       Register Reads (Bits):        9811808
       Register Writes (Bits):       10049727
   Registers Total Power:            75.253609 mW

   SPM Leakage Power:               0.078311 mW
   SPM Read Dynamic Power:          39.557522 mW
   SPM Write Dynamic Power:         6.188103 mW
   SPM Total Power:                 45.823935 mW

   SPM Energy Per Read Access:      0.130935 nJ
   SPM Energy Per Write Access:     0.166637 nJ

   Cache Leakage Power:             0.000000 mW
   Cache Read Dynamic Power:        0.000000 mW
   Cache Write Dynamic Power:       0.000000 mW
   Cache Total Power:               0.000000 mW

   Accelerator Power:               2818.479248 mW
   Accelerator Power (SPM):         2864.303183 mW
   Accelerator Power (Cache):       2818.479248 mW

   ========= Area Analysis =======================
   FU Area:                         22931.867188 um^2 (0.022932 mm^2)
   Register Area:                   199.868912 um^2 (0.000200 mm^2)
   SPM Area:                        1748.188735 um^2 (0.001748 mm^2)
   Cache Area:                      0.000000 um^2 (0.000000 mm^2)

   Accelerator Area:                23131.736328 um^2 (0.023132 mm^2)
   Accelerator Area (SPM):          24879.925063 um^2 (0.024880 mm^2)
   Accelerator Area (Cache):        23131.736328 um^2 (0.023132 mm^2)

   ========= SPM Resizing  =======================
   SPM Optimized Leakage Power:     0.002053 mW
   SPM Opt Area:                    145.024971 um^2

22417742500: global: Timer #0 started at tick 22417742500
22417973750: global: Timer #2 started at tick 22417973750
22418003125: global: Timer #2 stopped at tick 22418003125. Duration: 29375
22418224375: global: DAG ID = 0
22418236875: global: Node ID = 20
22418250000: global: Node deadline difference = 5397
22418262500: global: Predicted memory time / byte = 0 us/byte
22418275000: global: Predicted memory time = 0 us
22418287500: global: Predicted memory time / byte = 0 us/byte
22418300000: global: Predicted memory time = 0 us
22418312500: global: Predicted memory time / byte = 0 us/byte
22418325000: global: Predicted memory time = 0 us
22418337500: global: Predicted memory time / byte = 0 us/byte
22418350000: global: Predicted memory time = 0 us
22418362500: global: Predicted memory access size = 0
22418375000: global: Predicted memory access size = 65536
22418387500: global: Predicted memory access size = 0
22418400000: global: Predicted memory access size = 0
22418475000: global: Timer #6 started at tick 22418475000
22418567500: global: Timer #7 started at tick 22418567500
22419196625: system.acctest.elem_matrix0_dma: SRC:0x00000000820c2e00, DST:0x0000000024000020, LEN:65536
22419320000: global: Timer #7 stopped at tick 22419320000. Duration: 752500
22419335000: global: Timer #6 stopped at tick 22419335000. Duration: 860000
22419403750: global: Timer #0 stopped at tick 22419403750. Duration: 1661250
22419418125: global: Number of accelerators running = 1
22431135625: system.acctest.elem_matrix0_dma: Transfer completed in 11.939 us
22431220000: global: Timer #0 started at tick 22431220000
22431373750: global: Timer #6 started at tick 22431373750
22431454375: global: Timer #7 started at tick 22431454375
22432086625: system.acctest.elem_matrix0_dma: SRC:0x0000000022020020, DST:0x0000000024010020, LEN:65536
22432215625: global: Timer #7 stopped at tick 22432215625. Duration: 761250
22432233125: global: Timer #6 stopped at tick 22432233125. Duration: 859375
22432326875: global: Timer #0 stopped at tick 22432326875. Duration: 1106875
22432341250: global: Number of accelerators running = 1
22442347625: system.acctest.elem_matrix0_dma: Transfer completed in 10.261 us
22442424375: global: Timer #0 started at tick 22442424375
22442570000: global: Timer #6 started at tick 22442570000
22442627500: global: Timer #7 started at tick 22442627500
22443627500: global: Timer #7 stopped at tick 22443627500. Duration: 1000000
22443670625: global: Timer #6 stopped at tick 22443670625. Duration: 1100625
22443752500: global: Timer #0 stopped at tick 22443752500. Duration: 1328125
22443766875: global: Number of accelerators running = 1
********************************************************************************
system.acctest.elem_matrix0.compute
   ========= Performance Analysis =============
   Setup Time:                      5.269683seconds
   Simulation Time:                 135.540966seconds
   System Clock:                    1.000000GHz
   Transistor Latency:              1ns
   Runtime:                         10932 cycles
   Runtime:                         10.932000 us
   Stalls:                          1 cycles
   Executed Nodes:                  10930 cycles

********************************************************************************
   ========= Performance Analysis =================
   Setup Time:                      5269682911.000000ns
   Simulation Time:                 135540965964.000015ns
   System Clock:                    1.000000GHz
   Transistor Latency:              0ns
   Runtime:                         10932 cycles
   Runtime:                         0.000001 seconds
   Stalls:                          1 cycles
       Load Only:                   0 cycles
       Store Only:                  1 cycles
       Compute Only:                0 cycles
       Compute & Store:             0 cycles
       Load & Store:                0 cycles
       Load & Compute:              0 cycles
       Load & Compute & Store:      0 cycles
   Executed Nodes:                  10930 cycles
       Load Only:                   0 cycles
       Store Only:                  4 cycles
       Compute Only:                1 cycles
       Compute & Store:             21 cycles
       Load & Store:                0 cycles
       Load & Compute:              6 cycles
       Load & Compute & Store:      10898 cycles

   ========= Runtime FU's ========= (Max | Avg) ===
   Counter FU's:                      32 | 0.046838
   Integer Add/Sub FU's:               0 | 0.000000
   Integer Mul/Div FU's:               0 | 0.000000
   Integer Shifter FU's:               0 | 0.000000
   Integer Bitwise FU's:               1 | 0.000091
   Floating Point Float Add/Sub:       0 | 0.000000
   Floating Point Double Add/Sub:      0 | 0.000000
   Floating Point Float Mul/Div:      34 | 0.044252
   Floating Point Double Mul/Div:      0 | 0.000000
   0 Cycle Compare FU's:             102 | 0.046945
   GEP Instruction FU's:              96 | 0.046835
   Type Conversion FU's:               7 | 0.006782

   ========= Static FU's ==========================
   Counter FU's:                    0
   Integer Add/Sub FU's:            0
   Integer Mul/Div FU's:            0
   Integer Shifter FU's:            0
   Integer Bitwise FU's:            0
   Floating Point Float Add/Sub:    0
   Floating Point Double Add/Sub:   0
   Floating Point Float Mul/Div:    0
   Floating Point Double Mul/Div:   0
   0 Cycle Compare FU's:            0
   GEP Instruction FU's:            0
   Type Conversion FU's:            0
   Other:                           0

   ========= Pipeline Register Usage =============
   Total Number of Registers:       5641
   Max Register Usage Per Cycle:    137
   Avg Register Usage Per Cycle:    12.130992
   Avg Register Size (Bytes):       5.980606

   ========= Memory Configuration =================
   Cache Bus Ports:                 0
   Shared Cache Size:               0kB
   Local Bus Ports:                 0
   Private SPM Size:                256kB
   Private Read Ports:              0
   Private Write Ports:             0
   Private Read Bus Width:          64
   Private Write Bus Width:         64
       Memory Reads:                0
       Memory Writes:               0
   ========= Power Analysis ======================
   FU Leakage Power:                0.045377 mW 
   FU Dynamic Power:                0.142576 mW 
   FU Total Power:                  0.187953 mW 

   Registers Leakage Power:          0.005281 mW 
   Registers Dynamic Power:          0.015326 mW 
       Register Reads (Bits):        132616
       Register Writes (Bits):       133658
   Registers Total Power:            0.020607 mW

   SPM Leakage Power:               0.104100 mW
   SPM Read Dynamic Power:          9.708592 mW
   SPM Write Dynamic Power:         7.306241 mW
   SPM Total Power:                 17.118934 mW

   SPM Energy Per Read Access:      0.170493 nJ
   SPM Energy Per Write Access:     0.218190 nJ

   Cache Leakage Power:             0.000000 mW
   Cache Read Dynamic Power:        0.000000 mW
   Cache Write Dynamic Power:       0.000000 mW
   Cache Total Power:               0.000000 mW

   Accelerator Power:               0.208559 mW
   Accelerator Power (SPM):         17.327494 mW
   Accelerator Power (Cache):       0.208559 mW

   ========= Area Analysis =======================
   FU Area:                         5472.068359 um^2 (0.005472 mm^2)
   Register Area:                   429.271088 um^2 (0.000429 mm^2)
   SPM Area:                        2177.365505 um^2 (0.002177 mm^2)
   Cache Area:                      0.000000 um^2 (0.000000 mm^2)

   Accelerator Area:                5901.339355 um^2 (0.005901 mm^2)
   Accelerator Area (SPM):          8078.704860 um^2 (0.008079 mm^2)
   Accelerator Area (Cache):        5901.339355 um^2 (0.005901 mm^2)

   ========= SPM Resizing  =======================
   SPM Optimized Leakage Power:     0.004248 mW
   SPM Opt Area:                    178.524902 um^2

22454524375: global: Timer #0 started at tick 22454524375
22454734375: global: Timer #7 started at tick 22454734375
22455369500: system.acctest.elem_matrix0_dma: SRC:0x0000000024020020, DST:0x00000000820c2e00, LEN:65536
22455506250: global: Timer #7 stopped at tick 22455506250. Duration: 771875
22455732500: global: Timer #0 stopped at tick 22455732500. Duration: 1208125
22455746875: global: Number of accelerators running = 1
22461703500: system.acctest.elem_matrix0_dma: Transfer completed in 6.334 us
22461788125: global: Timer #0 started at tick 22461788125
22461966875: global: DAG ID = 0
22461979375: global: Node ID = 21
22462003125: global: DAG execution time = 22050
22462016250: global: DAG deadline difference = 5383
22462033125: global: Node deadline difference = 5383
22462045625: global: Predicted memory time / byte = 0 us/byte
22462058125: global: Predicted memory time = 0 us
22462070625: global: Predicted memory time / byte = 0 us/byte
22462083125: global: Predicted memory time = 0 us
22462095625: global: Predicted memory time / byte = 0 us/byte
22462108125: global: Predicted memory time = 0 us
22462120625: global: Predicted memory time / byte = 0 us/byte
22462133125: global: Predicted memory time = 0 us
22462145625: global: Predicted memory access size = 0
22462158125: global: Predicted memory access size = 131072
22462170625: global: Predicted memory access size = 0
22462183125: global: Predicted memory access size = 65536
22462282500: global: Timer #0 stopped at tick 22462282500. Duration: 494375
22462296875: global: Number of accelerators running = 0
22462376250: global: Number of forwards = 38
22462435000: global: Number of colocations = 2
22462453750: global: Number of DAG deadlines met = 1
22462472500: global: Number of node deadlines met = 22
22462512500: global: Total predicted compute time = 0 us
Exiting @ tick 22462592500 because m5_exit instruction encountered
