gem5 Simulator System.  http://gem5.org
gem5 is copyrighted software; use the --copyright option for details.

gem5 compiled Oct  4 2023 20:26:28
gem5 started Oct  5 2023 21:06:01
gem5 executing on node4x10a.cs.rochester.edu, pid 48252
command line: /u/sgupta45/gem5-SALAM/build/ARM/gem5_bus.opt --debug-flags=HWACC,CommInterface,LLVMInterface,StreamDma,NoncoherentDma,TickTimer,SchedulerStats --outdir=BM_ARM_OUT/comb_2_opt_flush_opt_fwd/canny_0_deblur_0_gru_0_harris_1_lstm_1_ELF configs/SALAM/scheduler.py --mem-size=4GB --mem-type=LPDDR5_6400_1x16_BG_BL32 --kernel=/u/sgupta45/gem5-SALAM/benchmarks/scheduler/sw/bin_comb_2/canny_0_deblur_0_gru_0_harris_1_lstm_1_ELF.elf --vans-config-path=/u/sgupta45/VANS/config --disk-image=/u/sgupta45/gem5-SALAM/baremetal/common/fake.iso --machine-type=VExpress_GEM5_V1 --dtb-file=none --bare-metal --cpu-type=ex5_LITTLE --cpu-clock=1.6GHz --accpath=/u/sgupta45/gem5-SALAM/benchmarks --caches --cacheline_size=64 --l1d_size=32kB --l1d_assoc=4 --l1i_size=32kB --l1i_assoc=2

Global frequency set at 1000000000000 ticks per second
Cycle Counts Loaded!
Cycle Counts Loaded!
Cycle Counts Loaded!
Cycle Counts Loaded!
Cycle Counts Loaded!
Cycle Counts Loaded!
Cycle Counts Loaded!
Cycle Counts Loaded!
Cycle Counts Loaded!
Cycle Counts Loaded!
Cycle Counts Loaded!
**** REAL SIMULATION ****
4605625: global: Timer #8 started at tick 4605625
8035625: global: Timer #8 stopped at tick 8035625. Duration: 3430000
8104375: global: Timer #8 started at tick 8104375
17466250: global: Timer #8 stopped at tick 17466250. Duration: 9361875
17868750: global: Timer #8 started at tick 17868750
30319375: global: Timer #8 stopped at tick 30319375. Duration: 12450625
31761250: global: Timer #8 started at tick 31761250
31804375: global: Timer #8 stopped at tick 31804375. Duration: 43125
31831250: global: Timer #8 started at tick 31831250
31860625: global: Timer #8 stopped at tick 31860625. Duration: 29375
31877500: global: Timer #8 started at tick 31877500
44337500: global: Timer #8 stopped at tick 44337500. Duration: 12460000
44356250: global: Timer #8 started at tick 44356250
56814375: global: Timer #8 stopped at tick 56814375. Duration: 12458125
59608750: global: Timer #8 started at tick 59608750
72067500: global: Timer #8 stopped at tick 72067500. Duration: 12458750
72085625: global: Timer #8 started at tick 72085625
84542500: global: Timer #8 stopped at tick 84542500. Duration: 12456875
84559375: global: Timer #8 started at tick 84559375
97021250: global: Timer #8 stopped at tick 97021250. Duration: 12461875
97038750: global: Timer #8 started at tick 97038750
109491875: global: Timer #8 stopped at tick 109491875. Duration: 12453125
109508750: global: Timer #8 started at tick 109508750
121962500: global: Timer #8 stopped at tick 121962500. Duration: 12453750
121980000: global: Timer #8 started at tick 121980000
134435625: global: Timer #8 stopped at tick 134435625. Duration: 12455625
134452500: global: Timer #8 started at tick 134452500
134506875: global: Timer #8 stopped at tick 134506875. Duration: 54375
137175000: global: Timer #8 started at tick 137175000
149635625: global: Timer #8 stopped at tick 149635625. Duration: 12460625
149683125: global: Timer #8 started at tick 149683125
162141250: global: Timer #8 stopped at tick 162141250. Duration: 12458125
162200625: global: Timer #8 started at tick 162200625
174652500: global: Timer #8 stopped at tick 174652500. Duration: 12451875
174670625: global: Timer #8 started at tick 174670625
187122500: global: Timer #8 stopped at tick 187122500. Duration: 12451875
187139375: global: Timer #8 started at tick 187139375
187174375: global: Timer #8 stopped at tick 187174375. Duration: 35000
187193125: global: Timer #8 started at tick 187193125
199657500: global: Timer #8 stopped at tick 199657500. Duration: 12464375
199675000: global: Timer #8 started at tick 199675000
212130625: global: Timer #8 stopped at tick 212130625. Duration: 12455625
212147500: global: Timer #8 started at tick 212147500
224601250: global: Timer #8 stopped at tick 224601250. Duration: 12453750
224948750: global: Timer #8 started at tick 224948750
228079375: global: Timer #8 stopped at tick 228079375. Duration: 3130625
229350625: global: Timer #8 started at tick 229350625
241811250: global: Timer #8 stopped at tick 241811250. Duration: 12460625
241870625: global: Timer #8 started at tick 241870625
254322500: global: Timer #8 stopped at tick 254322500. Duration: 12451875
254339375: global: Timer #8 started at tick 254339375
266796250: global: Timer #8 stopped at tick 266796250. Duration: 12456875
266814375: global: Timer #8 started at tick 266814375
279271250: global: Timer #8 stopped at tick 279271250. Duration: 12456875
279290000: global: Timer #8 started at tick 279290000
291745625: global: Timer #8 stopped at tick 291745625. Duration: 12455625
291762500: global: Timer #8 started at tick 291762500
304216250: global: Timer #8 stopped at tick 304216250. Duration: 12453750
304233750: global: Timer #8 started at tick 304233750
316687500: global: Timer #8 stopped at tick 316687500. Duration: 12453750
316704375: global: Timer #8 started at tick 316704375
329161250: global: Timer #8 stopped at tick 329161250. Duration: 12456875
329790000: global: Timer #8 started at tick 329790000
342245625: global: Timer #8 stopped at tick 342245625. Duration: 12455625
342262500: global: Timer #8 started at tick 342262500
354716250: global: Timer #8 stopped at tick 354716250. Duration: 12453750
953474375: global: Timer #8 started at tick 953474375
1189801250: global: Timer #8 stopped at tick 1189801250. Duration: 236326875
1637051875: global: Timer #8 started at tick 1637051875
1873376250: global: Timer #8 stopped at tick 1873376250. Duration: 236324375
2320418125: global: Timer #8 started at tick 2320418125
2556738125: global: Timer #8 stopped at tick 2556738125. Duration: 236320000
3004373125: global: Timer #8 started at tick 3004373125
3240693125: global: Timer #8 stopped at tick 3240693125. Duration: 236320000
3687913125: global: Timer #8 started at tick 3687913125
3924233125: global: Timer #8 stopped at tick 3924233125. Duration: 236320000
4371796250: global: Timer #8 started at tick 4371796250
4608116250: global: Timer #8 stopped at tick 4608116250. Duration: 236320000
5055190000: global: Timer #8 started at tick 5055190000
5291506250: global: Timer #8 stopped at tick 5291506250. Duration: 236316250
5739000000: global: Timer #8 started at tick 5739000000
5975316250: global: Timer #8 stopped at tick 5975316250. Duration: 236316250
5977808750: global: Timer #4 started at tick 5977808750
5978120625: global: Timer #4 stopped at tick 5978120625. Duration: 311875
5978139375: global: Timer #5 started at tick 5978139375
5978794375: global: Timer #5 stopped at tick 5978794375. Duration: 655000
5979873750: global: Timer #2 started at tick 5979873750
5980284375: global: Timer #2 stopped at tick 5980284375. Duration: 410625
5983481250: global: Timer #4 started at tick 5983481250
5983636250: global: Timer #4 stopped at tick 5983636250. Duration: 155000
5983651875: global: Timer #5 started at tick 5983651875
5984130625: global: Timer #5 stopped at tick 5984130625. Duration: 478750
5984374375: global: Timer #2 started at tick 5984374375
5984459375: global: Timer #2 stopped at tick 5984459375. Duration: 85000
6005863750: global: Timer #6 started at tick 6005863750
6006405625: global: Timer #7 started at tick 6006405625
6007166625: system.acctest.elem_matrix0_dma: SRC:0x0000000082368fc0, DST:0x0000000024000020, LEN:65536
6007420625: global: Timer #7 stopped at tick 6007420625. Duration: 1015000
6007536250: global: Timer #6 stopped at tick 6007536250. Duration: 1672500
6007697500: global: Timer #6 started at tick 6007697500
6008143750: global: Timer #7 started at tick 6008143750
6008879000: system.acctest.isp0_dma: SRC:0x0000000082093000, DST:0x0000000027000020, LEN:16900
6009198125: global: Timer #7 stopped at tick 6009198125. Duration: 1054375
6009270625: global: Timer #6 stopped at tick 6009270625. Duration: 1573125
6009330000: global: Number of accelerators running = 2
6013949000: system.acctest.isp0_dma: Transfer completed in 5.07 us
6014581875: global: Timer #0 started at tick 6014581875
6016121250: global: Timer #1 started at tick 6016121250
6016820625: global: Timer #1 stopped at tick 6016820625. Duration: 699375
6017465625: global: Timer #6 started at tick 6017465625
6017765625: global: Timer #7 started at tick 6017765625
6018299375: global: Timer #7 stopped at tick 6018299375. Duration: 533750
6018592500: global: Timer #6 stopped at tick 6018592500. Duration: 1126875
6018910000: global: Timer #0 stopped at tick 6018910000. Duration: 4328125
6018928750: global: Number of accelerators running = 2
6020999625: system.acctest.elem_matrix0_dma: Transfer completed in 13.833 us
6021136875: global: Timer #0 started at tick 6021136875
6021536875: global: Timer #1 started at tick 6021536875
6021650625: global: Timer #1 stopped at tick 6021650625. Duration: 113750
6021876875: global: Timer #6 started at tick 6021876875
6022411875: global: Timer #7 started at tick 6022411875
6023057375: system.acctest.elem_matrix0_dma: SRC:0x0000000082228e00, DST:0x0000000024010020, LEN:65536
6023188125: global: Timer #7 stopped at tick 6023188125. Duration: 776250
6023263750: global: Timer #6 stopped at tick 6023263750. Duration: 1386875
6023370000: global: Timer #0 stopped at tick 6023370000. Duration: 2233125
6023384375: global: Number of accelerators running = 2
6035023375: system.acctest.elem_matrix0_dma: Transfer completed in 11.966 us
6035099375: global: Timer #0 started at tick 6035099375
6035433750: global: Timer #1 started at tick 6035433750
6035487500: global: Timer #1 stopped at tick 6035487500. Duration: 53750
6035788750: global: Timer #6 started at tick 6035788750
6035874375: global: Timer #7 started at tick 6035874375
6036900000: global: Timer #7 stopped at tick 6036900000. Duration: 1025625
6036991875: global: Timer #6 stopped at tick 6036991875. Duration: 1203125
6037098125: global: Timer #0 stopped at tick 6037098125. Duration: 1998750
6037112500: global: Number of accelerators running = 2
********************************************************************************
system.acctest.elem_matrix0.compute
   ========= Performance Analysis =============
   Setup Time:                      5.45419seconds
   Simulation Time:                 515.566seconds
   System Clock:                    1GHz
   Transistor Latency:              1ns
   Runtime:                         10932 cycles
   Runtime:                         10.932 us
   Stalls:                          0 cycles
   Executed Nodes:                  10931 cycles

********************************************************************************
   ========= Performance Analysis =================
   Setup Time:                      5.45419e+09ns
   Simulation Time:                 5.15566e+11ns
   System Clock:                    1GHz
   Transistor Latency:              0ns
   Runtime:                         10932 cycles
   Runtime:                         1.0932e-06 seconds
   Stalls:                          0 cycles
       Load Only:                   0 cycles
       Store Only:                  0 cycles
       Compute Only:                0 cycles
       Compute & Store:             0 cycles
       Load & Store:                0 cycles
       Load & Compute:              0 cycles
       Load & Compute & Store:      0 cycles
   Executed Nodes:                  10931 cycles
       Load Only:                   0 cycles
       Store Only:                  5 cycles
       Compute Only:                1 cycles
       Compute & Store:             21 cycles
       Load & Store:                0 cycles
       Load & Compute:              7 cycles
       Load & Compute & Store:      10897 cycles

   ========= Runtime FU's ========= (Max | Avg) ===
   Counter FU's:                      32 | 0.046838
   Integer Add/Sub FU's:               0 | 0.000000
   Integer Mul/Div FU's:               0 | 0.000000
   Integer Shifter FU's:               0 | 0.000000
   Integer Bitwise FU's:               1 | 0.000091
   Floating Point Float Add/Sub:      34 | 0.044252
   Floating Point Double Add/Sub:      0 | 0.000000
   Floating Point Float Mul/Div:       0 | 0.000000
   Floating Point Double Mul/Div:      0 | 0.000000
   0 Cycle Compare FU's:             102 | 0.046974
   GEP Instruction FU's:              96 | 0.046835
   Type Conversion FU's:               7 | 0.006782

   ========= Static FU's ==========================
   Counter FU's:                    0
   Integer Add/Sub FU's:            0
   Integer Mul/Div FU's:            0
   Integer Shifter FU's:            0
   Integer Bitwise FU's:            0
   Floating Point Float Add/Sub:    0
   Floating Point Double Add/Sub:   0
   Floating Point Float Mul/Div:    0
   Floating Point Double Mul/Div:   0
   0 Cycle Compare FU's:            0
   GEP Instruction FU's:            0
   Type Conversion FU's:            0
   Other:                           0

   ========= Pipeline Register Usage =============
   Total Number of Registers:       5641
   Max Register Usage Per Cycle:    138
   Avg Register Usage Per Cycle:    12.130992
   Avg Register Size (Bytes):       5.980606

   ========= Memory Configuration =================
   Cache Bus Ports:                 0
   Shared Cache Size:               0kB
   Local Bus Ports:                 0
   Private SPM Size:                256kB
   Private Read Ports:              0
   Private Write Ports:             0
   Private Read Bus Width:          64
   Private Write Bus Width:         64
       Memory Reads:                0
       Memory Writes:               0
   ========= Power Analysis ======================
   FU Leakage Power:                0.519269 mW 
   FU Dynamic Power:                0.154621 mW 
   FU Total Power:                  0.673890 mW 

   Registers Leakage Power:          0.005281 mW 
   Registers Dynamic Power:          0.015326 mW 
       Register Reads (Bits):        132616
       Register Writes (Bits):       133658
   Registers Total Power:            0.020607 mW

   SPM Leakage Power:               0.104100 mW
   SPM Read Dynamic Power:          1.997266 mW
   SPM Write Dynamic Power:         0.953321 mW
   SPM Total Power:                 3.054688 mW

   SPM Energy Per Read Access:      0.170493 nJ
   SPM Energy Per Write Access:     0.218190 nJ

   Cache Leakage Power:             0.000000 mW
   Cache Read Dynamic Power:        0.000000 mW
   Cache Write Dynamic Power:       0.000000 mW
   Cache Total Power:               0.000000 mW

   Accelerator Power:               0.694497 mW
   Accelerator Power (SPM):         3.749184 mW
   Accelerator Power (Cache):       0.694497 mW

   ========= Area Analysis =======================
   FU Area:                         70212.562500 um^2 (0.070213 mm^2)
   Register Area:                   429.271088 um^2 (0.000429 mm^2)
   SPM Area:                        2177.365505 um^2 (0.002177 mm^2)
   Cache Area:                      0.000000 um^2 (0.000000 mm^2)

   Accelerator Area:                70641.835938 um^2 (0.070642 mm^2)
   Accelerator Area (SPM):          72819.201442 um^2 (0.072819 mm^2)
   Accelerator Area (Cache):        70641.835938 um^2 (0.070642 mm^2)

   ========= SPM Resizing  =======================
   SPM Optimized Leakage Power:     0.004248 mW
   SPM Opt Area:                    178.524902 um^2

6047785000: global: Timer #0 started at tick 6047785000
6048141875: global: Timer #3 started at tick 6048141875
6048228125: global: Timer #4 started at tick 6048228125
6048634375: global: Timer #4 stopped at tick 6048634375. Duration: 406250
6048653125: global: Timer #5 started at tick 6048653125
6049189375: global: Timer #5 stopped at tick 6049189375. Duration: 536250
6049416250: global: Timer #3 stopped at tick 6049416250. Duration: 1274375
6049508750: global: Timer #3 started at tick 6049508750
6049554375: global: Timer #4 started at tick 6049554375
6049670625: global: Timer #4 stopped at tick 6049670625. Duration: 116250
6049686250: global: Timer #5 started at tick 6049686250
6049805000: global: Timer #5 stopped at tick 6049805000. Duration: 118750
6050231875: global: Timer #3 stopped at tick 6050231875. Duration: 723125
6050333750: global: Timer #3 started at tick 6050333750
6050367500: global: Timer #4 started at tick 6050367500
6050535000: global: Timer #4 stopped at tick 6050535000. Duration: 167500
6050546250: global: Timer #5 started at tick 6050546250
6050667500: global: Timer #5 stopped at tick 6050667500. Duration: 121250
6050901250: global: Timer #3 stopped at tick 6050901250. Duration: 567500
6050985000: global: Timer #3 started at tick 6050985000
6051018750: global: Timer #4 started at tick 6051018750
6051101250: global: Timer #4 stopped at tick 6051101250. Duration: 82500
6051112500: global: Timer #5 started at tick 6051112500
6051168750: global: Timer #5 stopped at tick 6051168750. Duration: 56250
6051356250: global: Timer #3 stopped at tick 6051356250. Duration: 371250
6051699375: global: Timer #2 started at tick 6051699375
6052299375: global: Timer #2 stopped at tick 6052299375. Duration: 600000
6052345625: global: Timer #2 started at tick 6052345625
6052526250: global: Timer #2 stopped at tick 6052526250. Duration: 180625
6052635625: global: Timer #4 started at tick 6052635625
6052775000: global: Timer #4 stopped at tick 6052775000. Duration: 139375
6053015000: global: Timer #2 started at tick 6053015000
********************************************************************************
system.acctest.isp0.compute
   ========= Performance Analysis =============
   Setup Time:                      0.346844seconds
   Simulation Time:                 1128.337741seconds
   System Clock:                    1.000000GHz
   Transistor Latency:              1ns
   Runtime:                         34882 cycles
   Runtime:                         34.882000 us
   Stalls:                          1 cycles
   Executed Nodes:                  34880 cycles

********************************************************************************
   ========= Performance Analysis =================
   Setup Time:                      346844134.000000ns
   Simulation Time:                 1128337740834.000000ns
   System Clock:                    1.000000GHz
   Transistor Latency:              0ns
   Runtime:                         34882 cycles
   Runtime:                         0.000003 seconds
   Stalls:                          1 cycles
       Load Only:                   0 cycles
       Store Only:                  1 cycles
       Compute Only:                0 cycles
       Compute & Store:             0 cycles
       Load & Store:                0 cycles
       Load & Compute:              0 cycles
       Load & Compute & Store:      0 cycles
   Executed Nodes:                  34880 cycles
       Load Only:                   0 cycles
       Store Only:                  1 cycles
       Compute Only:                3453 cycles
       Compute & Store:             19014 cycles
       Load & Store:                0 cycles
       Load & Compute:              2467 cycles
       Load & Compute & Store:      9945 cycles

   ========= Runtime FU's ========= (Max | Avg) ===
   Counter FU's:                      10 | 0.118075
   Integer Add/Sub FU's:              76 | 0.082082
   Integer Mul/Div FU's:              11 | 0.043888
   Integer Shifter FU's:              42 | 0.055974
   Integer Bitwise FU's:               4 | 0.059443
   Floating Point Float Add/Sub:      53 | 0.116839
   Floating Point Double Add/Sub:      0 | 0.000000
   Floating Point Float Mul/Div:      76 | 0.625626
   Floating Point Double Mul/Div:      0 | 0.000000
   0 Cycle Compare FU's:              85 | 0.664984
   GEP Instruction FU's:              33 | 0.117424
   Type Conversion FU's:             110 | 0.379700

   ========= Static FU's ==========================
   Counter FU's:                    0
   Integer Add/Sub FU's:            0
   Integer Mul/Div FU's:            0
   Integer Shifter FU's:            0
   Integer Bitwise FU's:            0
   Floating Point Float Add/Sub:    0
   Floating Point Double Add/Sub:   0
   Floating Point Float Mul/Div:    0
   Floating Point Double Mul/Div:   0
   0 Cycle Compare FU's:            0
   GEP Instruction FU's:            0
   Type Conversion FU's:            0
   Other:                           0

   ========= Pipeline Register Usage =============
   Total Number of Registers:       1620
   Max Register Usage Per Cycle:    151
   Avg Register Usage Per Cycle:    58.744711
   Avg Register Size (Bytes):       5.073357

   ========= Memory Configuration =================
   Cache Bus Ports:                 0
   Shared Cache Size:               0kB
   Local Bus Ports:                 0
   Private SPM Size:                112kB
   Private Read Ports:              0
   Private Write Ports:             0
   Private Read Bus Width:          64
   Private Write Bus Width:         64
       Memory Reads:                0
       Memory Writes:               0
   ========= Power Analysis ======================
   FU Leakage Power:                1.637787 mW 
   FU Dynamic Power:                9.655087 mW 
   FU Total Power:                  11.292874 mW 

   Registers Leakage Power:          0.021654 mW 
   Registers Dynamic Power:          3.085961 mW 
       Register Reads (Bits):        2049133
       Register Writes (Bits):       2049168
   Registers Total Power:            3.107615 mW

   SPM Leakage Power:               0.061081 mW
   SPM Read Dynamic Power:          11.103730 mW
   SPM Write Dynamic Power:         7.385230 mW
   SPM Total Power:                 18.550041 mW

   SPM Energy Per Read Access:      0.142059 nJ
   SPM Energy Per Write Access:     0.255513 nJ

   Cache Leakage Power:             0.000000 mW
   Cache Read Dynamic Power:        0.000000 mW
   Cache Write Dynamic Power:       0.000000 mW
   Cache Total Power:               0.000000 mW

   Accelerator Power:               14.400490 mW
   Accelerator Power (SPM):         32.950531 mW
   Accelerator Power (Cache):       14.400490 mW

   ========= Area Analysis =======================
   FU Area:                         176023.796875 um^2 (0.176024 mm^2)
   Register Area:                   1760.064941 um^2 (0.001760 mm^2)
   SPM Area:                        2165.394891 um^2 (0.002165 mm^2)
   Cache Area:                      0.000000 um^2 (0.000000 mm^2)

   Accelerator Area:                177783.859375 um^2 (0.177784 mm^2)
   Accelerator Area (SPM):          179949.254266 um^2 (0.179949 mm^2)
   Accelerator Area (Cache):        177783.859375 um^2 (0.177784 mm^2)

   ========= SPM Resizing  =======================
   SPM Optimized Leakage Power:     0.005964 mW
   SPM Opt Area:                    422.108128 um^2

6053092500: global: Timer #2 stopped at tick 6053092500. Duration: 77500
6053107500: global: Timer #4 started at tick 6053107500
6053161875: global: Timer #4 stopped at tick 6053161875. Duration: 54375
6053363750: global: Timer #2 started at tick 6053363750
6053429375: global: Timer #2 stopped at tick 6053429375. Duration: 65625
6053444375: global: Timer #4 started at tick 6053444375
6053485000: global: Timer #4 stopped at tick 6053485000. Duration: 40625
6054406875: global: Timer #7 started at tick 6054406875
6055060875: system.acctest.elem_matrix0_dma: SRC:0x0000000024030020, DST:0x0000000082238e00, LEN:65536
6055208750: global: Timer #7 stopped at tick 6055208750. Duration: 801875
6055614375: global: Timer #0 stopped at tick 6055614375. Duration: 7829375
6055628750: global: Number of accelerators running = 2
6055749375: global: Timer #0 started at tick 6055749375
6056328750: global: Timer #3 started at tick 6056328750
6056374375: global: Timer #4 started at tick 6056374375
6056423125: global: Timer #4 stopped at tick 6056423125. Duration: 48750
6056438750: global: Timer #5 started at tick 6056438750
6057039375: global: Timer #5 stopped at tick 6057039375. Duration: 600625
6057304375: global: Timer #3 stopped at tick 6057304375. Duration: 975625
6057371250: global: Timer #2 started at tick 6057371250
6057444375: global: Timer #2 stopped at tick 6057444375. Duration: 73125
6057775000: global: DAG ID = 0
6057793125: global: Node ID = 0
6057855000: global: Node deadline difference = -13974
6057873125: global: Predicted memory time / byte = 7.27596e-05 us/byte
6057891250: global: Predicted memory time = 1.22964 us
6057909375: global: Predicted memory time / byte = 7.27596e-05 us/byte
6057927500: global: Predicted memory time = 0 us
6057990000: global: Predicted memory time / byte = 0.000345325 us/byte
6058008125: global: Predicted memory time = 5.836 us
6058026250: global: Predicted memory time / byte = 0 us/byte
6058044375: global: Predicted memory time = 0 us
6058062500: global: Predicted memory access size = 16900
6058080625: global: Predicted memory access size = 16900
6058142500: global: Predicted memory access size = 0
6058161250: global: Predicted memory access size = 0
6058318750: global: Timer #6 started at tick 6058318750
6058714375: global: Timer #7 started at tick 6058714375
6059368750: system.acctest.grayscale0_dma: SRC:0x0000000027010224, DST:0x0000000025000020, LEN:49152
6059685000: global: Timer #7 stopped at tick 6059685000. Duration: 970625
6059834375: global: Timer #6 stopped at tick 6059834375. Duration: 1515625
6059954375: global: Timer #0 stopped at tick 6059954375. Duration: 4205000
6059968750: global: Number of accelerators running = 2
6064267875: system.acctest.elem_matrix0_dma: Transfer completed in 9.207 us
6064351875: global: Timer #0 started at tick 6064351875
6064720625: global: Timer #1 started at tick 6064720625
6065013750: global: Timer #1 stopped at tick 6065013750. Duration: 293125
6065292500: global: DAG ID = 1
6065310625: global: Node ID = 0
6065377500: global: Node deadline difference = -3627
6065395625: global: Predicted memory time / byte = 7.27596e-05 us/byte
6065413750: global: Predicted memory time = 9.53674 us
6065431875: global: Predicted memory time / byte = 7.27596e-05 us/byte
6065450000: global: Predicted memory time = 4.76837 us
6065468125: global: Predicted memory time / byte = 0.000196838 us/byte
6065486250: global: Predicted memory time = 25.8 us
6065504375: global: Predicted memory time / byte = 0.000140564 us/byte
6065522500: global: Predicted memory time = 9.212 us
6065540625: global: Predicted memory access size = 131072
6065558750: global: Predicted memory access size = 131072
6065576875: global: Predicted memory access size = 65536
6065595000: global: Predicted memory access size = 65536
6065697500: global: Timer #6 started at tick 6065697500
6066300000: global: Timer #7 started at tick 6066300000
6066961000: system.acctest.elem_matrix0_dma: SRC:0x00000000821a8c80, DST:0x0000000024010020, LEN:65536
6067092500: global: Timer #7 stopped at tick 6067092500. Duration: 792500
6067163750: global: Timer #6 stopped at tick 6067163750. Duration: 1466250
6067265000: global: Timer #0 stopped at tick 6067265000. Duration: 2913125
6067279375: global: Number of accelerators running = 2
6069842750: system.acctest.grayscale0_dma: Transfer completed in 10.474 us
6069936875: global: Timer #0 started at tick 6069936875
6070271875: global: Timer #1 started at tick 6070271875
6070419375: global: Timer #1 stopped at tick 6070419375. Duration: 147500
6070730625: global: Timer #6 started at tick 6070730625
6070866250: global: Timer #7 started at tick 6070866250
6071308750: global: Timer #7 stopped at tick 6071308750. Duration: 442500
6071484375: global: Timer #6 stopped at tick 6071484375. Duration: 753750
6071598125: global: Timer #0 stopped at tick 6071598125. Duration: 1661250
6071612500: global: Number of accelerators running = 2
6078912000: system.acctest.elem_matrix0_dma: Transfer completed in 11.951 us
6078996250: global: Timer #0 started at tick 6078996250
6079313125: global: Timer #1 started at tick 6079313125
6079388125: global: Timer #1 stopped at tick 6079388125. Duration: 75000
6079631875: global: Timer #6 started at tick 6079631875
6079707500: global: Timer #7 started at tick 6079707500
6080736250: global: Timer #7 stopped at tick 6080736250. Duration: 1028750
6081070625: global: Timer #6 stopped at tick 6081070625. Duration: 1438750
6081180000: global: Timer #0 stopped at tick 6081180000. Duration: 2183750
6081194375: global: Number of accelerators running = 2
********************************************************************************
system.acctest.grayscale0.compute
   ========= Performance Analysis =============
   Setup Time:                      0.010146seconds
   Simulation Time:                 290.609667seconds
   System Clock:                    1.000000GHz
   Transistor Latency:              1ns
   Runtime:                         10263 cycles
   Runtime:                         10.263000 us
   Stalls:                          1 cycles
   Executed Nodes:                  10261 cycles

********************************************************************************
   ========= Performance Analysis =================
   Setup Time:                      10145654.000000ns
   Simulation Time:                 290609667464.000000ns
   System Clock:                    1.000000GHz
   Transistor Latency:              0ns
   Runtime:                         10263 cycles
   Runtime:                         0.000001 seconds
   Stalls:                          1 cycles
       Load Only:                   0 cycles
       Store Only:                  1 cycles
       Compute Only:                0 cycles
       Compute & Store:             0 cycles
       Load & Store:                0 cycles
       Load & Compute:              0 cycles
       Load & Compute & Store:      0 cycles
   Executed Nodes:                  10261 cycles
       Load Only:                   0 cycles
       Store Only:                  1 cycles
       Compute Only:                88 cycles
       Compute & Store:             344 cycles
       Load & Store:                0 cycles
       Load & Compute:              1981 cycles
       Load & Compute & Store:      7847 cycles

   ========= Runtime FU's ========= (Max | Avg) ===
   Counter FU's:                      24 | 0.199556
   Integer Add/Sub FU's:               0 | 0.000000
   Integer Mul/Div FU's:               8 | 0.199552
   Integer Shifter FU's:               0 | 0.000000
   Integer Bitwise FU's:               1 | 0.000097
   Floating Point Float Add/Sub:      49 | 0.114264
   Floating Point Double Add/Sub:      0 | 0.000000
   Floating Point Float Mul/Div:      42 | 0.114129
   Floating Point Double Mul/Div:      0 | 0.000000
   0 Cycle Compare FU's:               9 | 0.066626
   GEP Instruction FU's:              36 | 0.177452
   Type Conversion FU's:              76 | 0.401969

   ========= Static FU's ==========================
   Counter FU's:                    0
   Integer Add/Sub FU's:            0
   Integer Mul/Div FU's:            0
   Integer Shifter FU's:            0
   Integer Bitwise FU's:            0
   Floating Point Float Add/Sub:    0
   Floating Point Double Add/Sub:   0
   Floating Point Float Mul/Div:    0
   Floating Point Double Mul/Div:   0
   0 Cycle Compare FU's:            0
   GEP Instruction FU's:            0
   Type Conversion FU's:            0
   Other:                           0

   ========= Pipeline Register Usage =============
   Total Number of Registers:       235
   Max Register Usage Per Cycle:    90
   Avg Register Usage Per Cycle:    33.924291
   Avg Register Size (Bytes):       5.841147

   ========= Memory Configuration =================
   Cache Bus Ports:                 0
   Shared Cache Size:               0kB
   Local Bus Ports:                 0
   Private SPM Size:                176kB
   Private Read Ports:              0
   Private Write Ports:             0
   Private Read Bus Width:          64
   Private Write Bus Width:         64
       Memory Reads:                0
       Memory Writes:               0
   ========= Power Analysis ======================
   FU Leakage Power:                1.178269 mW 
   FU Dynamic Power:                0.617392 mW 
   FU Total Power:                  1.795662 mW 

   Registers Leakage Power:          0.014185 mW 
   Registers Dynamic Power:          0.101057 mW 
       Register Reads (Bits):        348165
       Register Writes (Bits):       348168
   Registers Total Power:            0.115242 mW

   SPM Leakage Power:               0.089881 mW
   SPM Read Dynamic Power:          6.997296 mW
   SPM Write Dynamic Power:         2.062375 mW
   SPM Total Power:                 9.149552 mW

   SPM Energy Per Read Access:      0.161778 nJ
   SPM Energy Per Write Access:     0.205661 nJ

   Cache Leakage Power:             0.000000 mW
   Cache Read Dynamic Power:        0.000000 mW
   Cache Write Dynamic Power:       0.000000 mW
   Cache Total Power:               0.000000 mW

   Accelerator Power:               1.910904 mW
   Accelerator Power (SPM):         11.060456 mW
   Accelerator Power (Cache):       1.910904 mW

   ========= Area Analysis =======================
   FU Area:                         143348.187500 um^2 (0.143348 mm^2)
   Register Area:                   1152.968140 um^2 (0.001153 mm^2)
   SPM Area:                        3573.642862 um^2 (0.003574 mm^2)
   Cache Area:                      0.000000 um^2 (0.000000 mm^2)

   Accelerator Area:                144501.156250 um^2 (0.144501 mm^2)
   Accelerator Area (SPM):          148074.799112 um^2 (0.148075 mm^2)
   Accelerator Area (Cache):        144501.156250 um^2 (0.144501 mm^2)

   ========= SPM Resizing  =======================
   SPM Optimized Leakage Power:     0.003633 mW
   SPM Opt Area:                    364.024374 um^2

6081488125: global: Timer #0 started at tick 6081488125
6081661250: global: Timer #3 started at tick 6081661250
6081702500: global: Timer #4 started at tick 6081702500
6081774375: global: Timer #4 stopped at tick 6081774375. Duration: 71875
6081785625: global: Timer #5 started at tick 6081785625
6082090000: global: Timer #5 stopped at tick 6082090000. Duration: 304375
6082345625: global: Timer #3 stopped at tick 6082345625. Duration: 684375
6082600625: global: Timer #3 started at tick 6082600625
6082641875: global: Timer #4 started at tick 6082641875
6082698125: global: Timer #4 stopped at tick 6082698125. Duration: 56250
6082709375: global: Timer #5 started at tick 6082709375
6082930000: global: Timer #5 stopped at tick 6082930000. Duration: 220625
6083183750: global: Timer #3 stopped at tick 6083183750. Duration: 583125
6083234375: global: Timer #2 started at tick 6083234375
6083292500: global: Timer #2 stopped at tick 6083292500. Duration: 58125
6083331875: global: Timer #2 started at tick 6083331875
6083407500: global: Timer #2 stopped at tick 6083407500. Duration: 75625
6083414375: global: Timer #4 started at tick 6083414375
6083458125: global: Timer #4 stopped at tick 6083458125. Duration: 43750
6083815625: global: Timer #7 started at tick 6083815625
6084451625: system.acctest.grayscale0_dma: SRC:0x000000002501c020, DST:0x00000000820a33c0, LEN:65536
6084604375: global: Timer #7 stopped at tick 6084604375. Duration: 788750
6084970000: global: Timer #6 started at tick 6084970000
6085448750: global: Timer #7 started at tick 6085448750
6086236000: system.acctest.convolution0_dma: SRC:0x000000002501c020, DST:0x0000000022000020, LEN:65536
6086513125: global: Timer #7 stopped at tick 6086513125. Duration: 1064375
6086541875: global: Timer #6 stopped at tick 6086541875. Duration: 1571875
6086668125: global: Timer #0 stopped at tick 6086668125. Duration: 5180000
6086682500: global: Number of accelerators running = 3
********************************************************************************
system.acctest.elem_matrix0.compute
   ========= Performance Analysis =============
   Setup Time:                      10.799500seconds
   Simulation Time:                 281.227494seconds
   System Clock:                    1.000000GHz
   Transistor Latency:              1ns
   Runtime:                         10932 cycles
   Runtime:                         10.932000 us
   Stalls:                          1 cycles
   Executed Nodes:                  10930 cycles

********************************************************************************
   ========= Performance Analysis =================
   Setup Time:                      10799499739.000000ns
   Simulation Time:                 281227493557.000000ns
   System Clock:                    1.000000GHz
   Transistor Latency:              0ns
   Runtime:                         10932 cycles
   Runtime:                         0.000001 seconds
   Stalls:                          1 cycles
       Load Only:                   0 cycles
       Store Only:                  1 cycles
       Compute Only:                0 cycles
       Compute & Store:             0 cycles
       Load & Store:                0 cycles
       Load & Compute:              0 cycles
       Load & Compute & Store:      0 cycles
   Executed Nodes:                  10930 cycles
       Load Only:                   0 cycles
       Store Only:                  4 cycles
       Compute Only:                1 cycles
       Compute & Store:             21 cycles
       Load & Store:                0 cycles
       Load & Compute:              6 cycles
       Load & Compute & Store:      10898 cycles

   ========= Runtime FU's ========= (Max | Avg) ===
   Counter FU's:                      32 | 0.046838
   Integer Add/Sub FU's:               0 | 0.000000
   Integer Mul/Div FU's:               0 | 0.000000
   Integer Shifter FU's:               0 | 0.000000
   Integer Bitwise FU's:               1 | 0.000091
   Floating Point Float Add/Sub:       0 | 0.000000
   Floating Point Double Add/Sub:      0 | 0.000000
   Floating Point Float Mul/Div:      34 | 0.044252
   Floating Point Double Mul/Div:      0 | 0.000000
   0 Cycle Compare FU's:             102 | 0.046945
   GEP Instruction FU's:              96 | 0.046835
   Type Conversion FU's:               7 | 0.006782

   ========= Static FU's ==========================
   Counter FU's:                    0
   Integer Add/Sub FU's:            0
   Integer Mul/Div FU's:            0
   Integer Shifter FU's:            0
   Integer Bitwise FU's:            0
   Floating Point Float Add/Sub:    0
   Floating Point Double Add/Sub:   0
   Floating Point Float Mul/Div:    0
   Floating Point Double Mul/Div:   0
   0 Cycle Compare FU's:            0
   GEP Instruction FU's:            0
   Type Conversion FU's:            0
   Other:                           0

   ========= Pipeline Register Usage =============
   Total Number of Registers:       5641
   Max Register Usage Per Cycle:    137
   Avg Register Usage Per Cycle:    12.130992
   Avg Register Size (Bytes):       5.980606

   ========= Memory Configuration =================
   Cache Bus Ports:                 0
   Shared Cache Size:               0kB
   Local Bus Ports:                 0
   Private SPM Size:                256kB
   Private Read Ports:              0
   Private Write Ports:             0
   Private Read Bus Width:          64
   Private Write Bus Width:         64
       Memory Reads:                0
       Memory Writes:               0
   ========= Power Analysis ======================
   FU Leakage Power:                0.045377 mW 
   FU Dynamic Power:                0.142576 mW 
   FU Total Power:                  0.187953 mW 

   Registers Leakage Power:          0.005281 mW 
   Registers Dynamic Power:          0.015326 mW 
       Register Reads (Bits):        132616
       Register Writes (Bits):       133658
   Registers Total Power:            0.020607 mW

   SPM Leakage Power:               0.104100 mW
   SPM Read Dynamic Power:          2.785289 mW
   SPM Write Dynamic Power:         2.044305 mW
   SPM Total Power:                 4.933694 mW

   SPM Energy Per Read Access:      0.170493 nJ
   SPM Energy Per Write Access:     0.218190 nJ

   Cache Leakage Power:             0.000000 mW
   Cache Read Dynamic Power:        0.000000 mW
   Cache Write Dynamic Power:       0.000000 mW
   Cache Total Power:               0.000000 mW

   Accelerator Power:               0.208559 mW
   Accelerator Power (SPM):         5.142254 mW
   Accelerator Power (Cache):       0.208559 mW

   ========= Area Analysis =======================
   FU Area:                         5472.068359 um^2 (0.005472 mm^2)
   Register Area:                   429.271088 um^2 (0.000429 mm^2)
   SPM Area:                        2177.365505 um^2 (0.002177 mm^2)
   Cache Area:                      0.000000 um^2 (0.000000 mm^2)

   Accelerator Area:                5901.339355 um^2 (0.005901 mm^2)
   Accelerator Area (SPM):          8078.704860 um^2 (0.008079 mm^2)
   Accelerator Area (Cache):        5901.339355 um^2 (0.005901 mm^2)

   ========= SPM Resizing  =======================
   SPM Optimized Leakage Power:     0.004248 mW
   SPM Opt Area:                    178.524902 um^2

6091633125: global: Timer #0 started at tick 6091633125
6091938750: global: Timer #3 started at tick 6091938750
6092011875: global: Timer #4 started at tick 6092011875
6092098750: global: Timer #4 stopped at tick 6092098750. Duration: 86875
6092110000: global: Timer #5 started at tick 6092110000
6092296875: global: Timer #5 stopped at tick 6092296875. Duration: 186875
6092481250: global: Timer #3 stopped at tick 6092481250. Duration: 542500
6092537500: global: Timer #2 started at tick 6092537500
6092737500: global: Timer #2 stopped at tick 6092737500. Duration: 200000
6092989375: global: DAG ID = 1
6093001875: global: Node ID = 1
6093015000: global: Node deadline difference = -3657
6093027500: global: Predicted memory time / byte = 0.000182541 us/byte
6093040000: global: Predicted memory time = 11.963 us
6093052500: global: Predicted memory time / byte = 0.000182541 us/byte
6093065000: global: Predicted memory time = 0 us
6093077500: global: Predicted memory time / byte = 0.000182297 us/byte
6093090000: global: Predicted memory time = 11.947 us
6093102500: global: Predicted memory time / byte = 0 us/byte
6093115000: global: Predicted memory time = 0 us
6093127500: global: Predicted memory access size = 65536
6093140000: global: Predicted memory access size = 65536
6093152500: global: Predicted memory access size = 0
6093165000: global: Predicted memory access size = 0
6093263750: global: Timer #6 started at tick 6093263750
6093383750: global: Timer #7 started at tick 6093383750
6094067000: system.acctest.elem_matrix0_dma: SRC:0x00000000821b8c80, DST:0x0000000024010020, LEN:65536
6094195625: global: Timer #7 stopped at tick 6094195625. Duration: 811875
6094210625: global: Timer #6 stopped at tick 6094210625. Duration: 946875
6094303750: global: Timer #0 stopped at tick 6094303750. Duration: 2670625
6094318125: global: Number of accelerators running = 3
6095459625: system.acctest.grayscale0_dma: Transfer completed in 11.008 us
6095543750: global: Timer #0 started at tick 6095543750
6095866250: global: Timer #1 started at tick 6095866250
6095943125: global: Timer #1 stopped at tick 6095943125. Duration: 76875
6096153750: global: DAG ID = 0
6096166250: global: Node ID = 1
6096185625: global: Node deadline difference = -13972
6096198125: global: Predicted memory time / byte = 0.000182541 us/byte
6096210625: global: Predicted memory time = 8.97225 us
6096223125: global: Predicted memory time / byte = 0.000182541 us/byte
6096235625: global: Predicted memory time = 11.963 us
6096248125: global: Predicted memory time / byte = 0.00021226 us/byte
6096260625: global: Predicted memory time = 10.433 us
6096273125: global: Predicted memory time / byte = 0.00016777 us/byte
6096285625: global: Predicted memory time = 10.995 us
6096298125: global: Predicted memory access size = 49152
6096310625: global: Predicted memory access size = 49152
6096323125: global: Predicted memory access size = 65536
6096335625: global: Predicted memory access size = 65536
6096486875: global: Timer #0 stopped at tick 6096486875. Duration: 943125
6096501250: global: Number of accelerators running = 2
6102739000: system.acctest.convolution0_dma: Transfer completed in 16.503 us
6102833125: global: Timer #0 started at tick 6102833125
6103163750: global: Timer #1 started at tick 6103163750
6103230625: global: Timer #1 stopped at tick 6103230625. Duration: 66875
6103475000: global: Timer #6 started at tick 6103475000
6103660625: global: Timer #7 started at tick 6103660625
6104310000: system.acctest.convolution0_dma: SRC:0x00000000820b36c0, DST:0x0000000022030020, LEN:36
6104398000: system.acctest.convolution0_dma: Transfer completed in 0.088 us
6104498750: global: Timer #7 stopped at tick 6104498750. Duration: 838125
6104532500: global: Timer #6 stopped at tick 6104532500. Duration: 1057500
6104635625: global: Timer #0 stopped at tick 6104635625. Duration: 1802500
6104650000: global: Number of accelerators running = 2
6104764375: global: Timer #0 started at tick 6104764375
6105242500: global: Timer #6 started at tick 6105242500
6105301250: global: Timer #7 started at tick 6105301250
6106378750: global: Timer #7 stopped at tick 6106378750. Duration: 1077500
6106433750: global: Timer #6 stopped at tick 6106433750. Duration: 1191250
6106540000: global: Timer #0 stopped at tick 6106540000. Duration: 1775625
6106554375: global: Number of accelerators running = 2
6107255000: system.acctest.elem_matrix0_dma: Transfer completed in 13.188 us
6107338750: global: Timer #0 started at tick 6107338750
6107666250: global: Timer #1 started at tick 6107666250
6107725000: global: Timer #1 stopped at tick 6107725000. Duration: 58750
6107961875: global: Timer #6 started at tick 6107961875
6108035000: global: Timer #7 started at tick 6108035000
6109051250: global: Timer #7 stopped at tick 6109051250. Duration: 1016250
6109115625: global: Timer #6 stopped at tick 6109115625. Duration: 1153750
6109216875: global: Timer #0 stopped at tick 6109216875. Duration: 1878125
6109231250: global: Number of accelerators running = 2
********************************************************************************
system.acctest.elem_matrix0.compute
   ========= Performance Analysis =============
   Setup Time:                      14.589171seconds
   Simulation Time:                 233.150310seconds
   System Clock:                    1.000000GHz
   Transistor Latency:              1ns
   Runtime:                         10932 cycles
   Runtime:                         10.932000 us
   Stalls:                          0 cycles
   Executed Nodes:                  10931 cycles

********************************************************************************
   ========= Performance Analysis =================
   Setup Time:                      14589171430.000000ns
   Simulation Time:                 233150310488.000000ns
   System Clock:                    1.000000GHz
   Transistor Latency:              0ns
   Runtime:                         10932 cycles
   Runtime:                         0.000001 seconds
   Stalls:                          0 cycles
       Load Only:                   0 cycles
       Store Only:                  0 cycles
       Compute Only:                0 cycles
       Compute & Store:             0 cycles
       Load & Store:                0 cycles
       Load & Compute:              0 cycles
       Load & Compute & Store:      0 cycles
   Executed Nodes:                  10931 cycles
       Load Only:                   0 cycles
       Store Only:                  5 cycles
       Compute Only:                1 cycles
       Compute & Store:             21 cycles
       Load & Store:                0 cycles
       Load & Compute:              7 cycles
       Load & Compute & Store:      10897 cycles

   ========= Runtime FU's ========= (Max | Avg) ===
   Counter FU's:                      32 | 0.046838
   Integer Add/Sub FU's:               0 | 0.000000
   Integer Mul/Div FU's:               0 | 0.000000
   Integer Shifter FU's:               0 | 0.000000
   Integer Bitwise FU's:               1 | 0.000091
   Floating Point Float Add/Sub:      34 | 0.044252
   Floating Point Double Add/Sub:      0 | 0.000000
   Floating Point Float Mul/Div:       0 | 0.000000
   Floating Point Double Mul/Div:      0 | 0.000000
   0 Cycle Compare FU's:             102 | 0.046974
   GEP Instruction FU's:              96 | 0.046835
   Type Conversion FU's:               7 | 0.006782

   ========= Static FU's ==========================
   Counter FU's:                    0
   Integer Add/Sub FU's:            0
   Integer Mul/Div FU's:            0
   Integer Shifter FU's:            0
   Integer Bitwise FU's:            0
   Floating Point Float Add/Sub:    0
   Floating Point Double Add/Sub:   0
   Floating Point Float Mul/Div:    0
   Floating Point Double Mul/Div:   0
   0 Cycle Compare FU's:            0
   GEP Instruction FU's:            0
   Type Conversion FU's:            0
   Other:                           0

   ========= Pipeline Register Usage =============
   Total Number of Registers:       5641
   Max Register Usage Per Cycle:    138
   Avg Register Usage Per Cycle:    12.130992
   Avg Register Size (Bytes):       5.980606

   ========= Memory Configuration =================
   Cache Bus Ports:                 0
   Shared Cache Size:               0kB
   Local Bus Ports:                 0
   Private SPM Size:                256kB
   Private Read Ports:              0
   Private Write Ports:             0
   Private Read Bus Width:          64
   Private Write Bus Width:         64
       Memory Reads:                0
       Memory Writes:               0
   ========= Power Analysis ======================
   FU Leakage Power:                0.519269 mW 
   FU Dynamic Power:                0.154621 mW 
   FU Total Power:                  0.673890 mW 

   Registers Leakage Power:          0.005281 mW 
   Registers Dynamic Power:          0.015326 mW 
       Register Reads (Bits):        132616
       Register Writes (Bits):       133658
   Registers Total Power:            0.020607 mW

   SPM Leakage Power:               0.104100 mW
   SPM Read Dynamic Power:          3.776796 mW
   SPM Write Dynamic Power:         2.457440 mW
   SPM Total Power:                 6.338336 mW

   SPM Energy Per Read Access:      0.170493 nJ
   SPM Energy Per Write Access:     0.218190 nJ

   Cache Leakage Power:             0.000000 mW
   Cache Read Dynamic Power:        0.000000 mW
   Cache Write Dynamic Power:       0.000000 mW
   Cache Total Power:               0.000000 mW

   Accelerator Power:               0.694497 mW
   Accelerator Power (SPM):         7.032833 mW
   Accelerator Power (Cache):       0.694497 mW

   ========= Area Analysis =======================
   FU Area:                         70212.562500 um^2 (0.070213 mm^2)
   Register Area:                   429.271088 um^2 (0.000429 mm^2)
   SPM Area:                        2177.365505 um^2 (0.002177 mm^2)
   Cache Area:                      0.000000 um^2 (0.000000 mm^2)

   Accelerator Area:                70641.835938 um^2 (0.070642 mm^2)
   Accelerator Area (SPM):          72819.201442 um^2 (0.072819 mm^2)
   Accelerator Area (Cache):        70641.835938 um^2 (0.070642 mm^2)

   ========= SPM Resizing  =======================
   SPM Optimized Leakage Power:     0.004248 mW
   SPM Opt Area:                    178.524902 um^2

6119941250: global: Timer #0 started at tick 6119941250
6120243125: global: Timer #3 started at tick 6120243125
6120262500: global: Timer #4 started at tick 6120262500
6120321250: global: Timer #4 stopped at tick 6120321250. Duration: 58750
6120332500: global: Timer #5 started at tick 6120332500
6120490000: global: Timer #5 stopped at tick 6120490000. Duration: 157500
6120630000: global: Timer #3 stopped at tick 6120630000. Duration: 386875
6120691250: global: Timer #2 started at tick 6120691250
6120856875: global: Timer #2 stopped at tick 6120856875. Duration: 165625
6121094375: global: DAG ID = 1
6121106875: global: Node ID = 2
6121120000: global: Node deadline difference = -3685
6121132500: global: Predicted memory time / byte = 0.000182297 us/byte
6121145000: global: Predicted memory time = 11.947 us
6121157500: global: Predicted memory time / byte = 0.000182297 us/byte
6121170000: global: Predicted memory time = 0 us
6121182500: global: Predicted memory time / byte = 0.000201187 us/byte
6121195000: global: Predicted memory time = 13.185 us
6121207500: global: Predicted memory time / byte = 0 us/byte
6121220000: global: Predicted memory time = 0 us
6121232500: global: Predicted memory access size = 65536
6121245000: global: Predicted memory access size = 65536
6121257500: global: Predicted memory access size = 0
6121270000: global: Predicted memory access size = 0
6121346250: global: Timer #6 started at tick 6121346250
6121453750: global: Timer #7 started at tick 6121453750
6122479375: global: Timer #7 stopped at tick 6122479375. Duration: 1025625
6122683750: global: Timer #6 stopped at tick 6122683750. Duration: 1337500
6122770000: global: Timer #0 stopped at tick 6122770000. Duration: 2828750
6122784375: global: Number of accelerators running = 2
********************************************************************************
system.acctest.elem_matrix0.compute
   ========= Performance Analysis =============
   Setup Time:                      14.429070seconds
   Simulation Time:                 174.263728seconds
   System Clock:                    1.000000GHz
   Transistor Latency:              1ns
   Runtime:                         8316 cycles
   Runtime:                         8.316000 us
   Stalls:                          82 cycles
   Executed Nodes:                  8233 cycles

********************************************************************************
   ========= Performance Analysis =================
   Setup Time:                      14429069548.000000ns
   Simulation Time:                 174263727909.000000ns
   System Clock:                    1.000000GHz
   Transistor Latency:              0ns
   Runtime:                         8316 cycles
   Runtime:                         0.000001 seconds
   Stalls:                          82 cycles
       Load Only:                   0 cycles
       Store Only:                  77 cycles
       Compute Only:                0 cycles
       Compute & Store:             5 cycles
       Load & Store:                0 cycles
       Load & Compute:              0 cycles
       Load & Compute & Store:      0 cycles
   Executed Nodes:                  8233 cycles
       Load Only:                   0 cycles
       Store Only:                  11 cycles
       Compute Only:                1827 cycles
       Compute & Store:             3453 cycles
       Load & Store:                0 cycles
       Load & Compute:              774 cycles
       Load & Compute & Store:      2168 cycles

   ========= Runtime FU's ========= (Max | Avg) ===
   Counter FU's:                      32 | 0.061572
   Integer Add/Sub FU's:               0 | 0.000000
   Integer Mul/Div FU's:               0 | 0.000000
   Integer Shifter FU's:               0 | 0.000000
   Integer Bitwise FU's:               1 | 0.000120
   Floating Point Float Add/Sub:      80 | 0.302014
   Floating Point Double Add/Sub:      0 | 0.000000
   Floating Point Float Mul/Div:      35 | 0.056511
   Floating Point Double Mul/Div:      0 | 0.000000
   0 Cycle Compare FU's:              15 | 0.024828
   GEP Instruction FU's:              64 | 0.061568
   Type Conversion FU's:              66 | 0.120964

   ========= Static FU's ==========================
   Counter FU's:                    0
   Integer Add/Sub FU's:            0
   Integer Mul/Div FU's:            0
   Integer Shifter FU's:            0
   Integer Bitwise FU's:            0
   Floating Point Float Add/Sub:    0
   Floating Point Double Add/Sub:   0
   Floating Point Float Mul/Div:    0
   Floating Point Double Mul/Div:   0
   0 Cycle Compare FU's:            0
   GEP Instruction FU's:            0
   Type Conversion FU's:            0
   Other:                           0

   ========= Pipeline Register Usage =============
   Total Number of Registers:       5641
   Max Register Usage Per Cycle:    126
   Avg Register Usage Per Cycle:    27.706590
   Avg Register Size (Bytes):       5.993295

   ========= Memory Configuration =================
   Cache Bus Ports:                 0
   Shared Cache Size:               0kB
   Local Bus Ports:                 0
   Private SPM Size:                256kB
   Private Read Ports:              0
   Private Write Ports:             0
   Private Read Bus Width:          64
   Private Write Bus Width:         64
       Memory Reads:                0
       Memory Writes:               0
   ========= Power Analysis ======================
   FU Leakage Power:                1.265749 mW 
   FU Dynamic Power:                1.166708 mW 
   FU Total Power:                  2.432457 mW 

   Registers Leakage Power:          0.011908 mW 
   Registers Dynamic Power:          0.045645 mW 
       Register Reads (Bits):        230408
       Register Writes (Bits):       231961
   Registers Total Power:            0.057553 mW

   SPM Leakage Power:               0.104100 mW
   SPM Read Dynamic Power:          4.599549 mW
   SPM Write Dynamic Power:         2.880682 mW
   SPM Total Power:                 7.584331 mW

   SPM Energy Per Read Access:      0.170493 nJ
   SPM Energy Per Write Access:     0.218190 nJ

   Cache Leakage Power:             0.000000 mW
   Cache Read Dynamic Power:        0.000000 mW
   Cache Write Dynamic Power:       0.000000 mW
   Cache Total Power:               0.000000 mW

   Accelerator Power:               2.490010 mW
   Accelerator Power (SPM):         10.074342 mW
   Accelerator Power (Cache):       2.490010 mW

   ========= Area Analysis =======================
   FU Area:                         170559.593750 um^2 (0.170560 mm^2)
   Register Area:                   967.909180 um^2 (0.000968 mm^2)
   SPM Area:                        2177.365505 um^2 (0.002177 mm^2)
   Cache Area:                      0.000000 um^2 (0.000000 mm^2)

   Accelerator Area:                171527.500000 um^2 (0.171527 mm^2)
   Accelerator Area (SPM):          173704.865505 um^2 (0.173705 mm^2)
   Accelerator Area (Cache):        171527.500000 um^2 (0.171527 mm^2)

   ========= SPM Resizing  =======================
   SPM Optimized Leakage Power:     0.003887 mW
   SPM Opt Area:                    172.850411 um^2

6130753125: global: Timer #0 started at tick 6130753125
6131050000: global: Timer #3 started at tick 6131050000
6131069375: global: Timer #4 started at tick 6131069375
6131152500: global: Timer #4 stopped at tick 6131152500. Duration: 83125
6131163750: global: Timer #5 started at tick 6131163750
6131307500: global: Timer #5 stopped at tick 6131307500. Duration: 143750
6131539375: global: Timer #3 stopped at tick 6131539375. Duration: 489375
6131593750: global: Timer #2 started at tick 6131593750
6131728750: global: Timer #2 stopped at tick 6131728750. Duration: 135000
6132024375: global: DAG ID = 1
6132036875: global: Node ID = 3
6132050000: global: Node deadline difference = -3715
6132062500: global: Predicted memory time / byte = 0.000201187 us/byte
6132075000: global: Predicted memory time = 0 us
6132087500: global: Predicted memory time / byte = 0.000201187 us/byte
6132100000: global: Predicted memory time = 0 us
6132112500: global: Predicted memory time / byte = 0 us/byte
6132125000: global: Predicted memory time = 0 us
6132137500: global: Predicted memory time / byte = 0 us/byte
6132150000: global: Predicted memory time = 0 us
6132162500: global: Predicted memory access size = 0
6132175000: global: Predicted memory access size = 0
6132187500: global: Predicted memory access size = 0
6132200000: global: Predicted memory access size = 0
6132270000: global: Timer #6 started at tick 6132270000
6132373125: global: Timer #7 started at tick 6132373125
6133004500: system.acctest.elem_matrix0_dma: SRC:0x0000000082358fc0, DST:0x0000000024000020, LEN:65536
6133135000: global: Timer #7 stopped at tick 6133135000. Duration: 761875
6133157500: global: Timer #6 stopped at tick 6133157500. Duration: 887500
6133229375: global: Timer #0 stopped at tick 6133229375. Duration: 2476250
6133243750: global: Number of accelerators running = 2
6145001500: system.acctest.elem_matrix0_dma: Transfer completed in 11.997 us
6145077500: global: Timer #0 started at tick 6145077500
6145402500: global: Timer #1 started at tick 6145402500
6145461250: global: Timer #1 stopped at tick 6145461250. Duration: 58750
6145685000: global: Timer #6 started at tick 6145685000
6145953125: global: Timer #7 started at tick 6145953125
6146957500: global: Timer #7 stopped at tick 6146957500. Duration: 1004375
6147110625: global: Timer #6 stopped at tick 6147110625. Duration: 1425625
6147207500: global: Timer #0 stopped at tick 6147207500. Duration: 2130000
6147221875: global: Number of accelerators running = 2
********************************************************************************
system.acctest.elem_matrix0.compute
   ========= Performance Analysis =============
   Setup Time:                      8.148313seconds
   Simulation Time:                 218.591157seconds
   System Clock:                    1.000000GHz
   Transistor Latency:              1ns
   Runtime:                         10932 cycles
   Runtime:                         10.932000 us
   Stalls:                          1 cycles
   Executed Nodes:                  10930 cycles

********************************************************************************
   ========= Performance Analysis =================
   Setup Time:                      8148312880.000001ns
   Simulation Time:                 218591157049.000000ns
   System Clock:                    1.000000GHz
   Transistor Latency:              0ns
   Runtime:                         10932 cycles
   Runtime:                         0.000001 seconds
   Stalls:                          1 cycles
       Load Only:                   0 cycles
       Store Only:                  1 cycles
       Compute Only:                0 cycles
       Compute & Store:             0 cycles
       Load & Store:                0 cycles
       Load & Compute:              0 cycles
       Load & Compute & Store:      0 cycles
   Executed Nodes:                  10930 cycles
       Load Only:                   0 cycles
       Store Only:                  4 cycles
       Compute Only:                1 cycles
       Compute & Store:             21 cycles
       Load & Store:                0 cycles
       Load & Compute:              6 cycles
       Load & Compute & Store:      10898 cycles

   ========= Runtime FU's ========= (Max | Avg) ===
   Counter FU's:                      32 | 0.046838
   Integer Add/Sub FU's:               0 | 0.000000
   Integer Mul/Div FU's:               0 | 0.000000
   Integer Shifter FU's:               0 | 0.000000
   Integer Bitwise FU's:               1 | 0.000091
   Floating Point Float Add/Sub:       0 | 0.000000
   Floating Point Double Add/Sub:      0 | 0.000000
   Floating Point Float Mul/Div:      34 | 0.044252
   Floating Point Double Mul/Div:      0 | 0.000000
   0 Cycle Compare FU's:             102 | 0.046945
   GEP Instruction FU's:              96 | 0.046835
   Type Conversion FU's:               7 | 0.006782

   ========= Static FU's ==========================
   Counter FU's:                    0
   Integer Add/Sub FU's:            0
   Integer Mul/Div FU's:            0
   Integer Shifter FU's:            0
   Integer Bitwise FU's:            0
   Floating Point Float Add/Sub:    0
   Floating Point Double Add/Sub:   0
   Floating Point Float Mul/Div:    0
   Floating Point Double Mul/Div:   0
   0 Cycle Compare FU's:            0
   GEP Instruction FU's:            0
   Type Conversion FU's:            0
   Other:                           0

   ========= Pipeline Register Usage =============
   Total Number of Registers:       5641
   Max Register Usage Per Cycle:    137
   Avg Register Usage Per Cycle:    12.130992
   Avg Register Size (Bytes):       5.980606

   ========= Memory Configuration =================
   Cache Bus Ports:                 0
   Shared Cache Size:               0kB
   Local Bus Ports:                 0
   Private SPM Size:                256kB
   Private Read Ports:              0
   Private Write Ports:             0
   Private Read Bus Width:          64
   Private Write Bus Width:         64
       Memory Reads:                0
       Memory Writes:               0
   ========= Power Analysis ======================
   FU Leakage Power:                0.045377 mW 
   FU Dynamic Power:                0.142576 mW 
   FU Total Power:                  0.187953 mW 

   Registers Leakage Power:          0.005281 mW 
   Registers Dynamic Power:          0.015326 mW 
       Register Reads (Bits):        132616
       Register Writes (Bits):       133658
   Registers Total Power:            0.020607 mW

   SPM Leakage Power:               0.104100 mW
   SPM Read Dynamic Power:          4.784107 mW
   SPM Write Dynamic Power:         3.448926 mW
   SPM Total Power:                 8.337133 mW

   SPM Energy Per Read Access:      0.170493 nJ
   SPM Energy Per Write Access:     0.218190 nJ

   Cache Leakage Power:             0.000000 mW
   Cache Read Dynamic Power:        0.000000 mW
   Cache Write Dynamic Power:       0.000000 mW
   Cache Total Power:               0.000000 mW

   Accelerator Power:               0.208559 mW
   Accelerator Power (SPM):         8.545693 mW
   Accelerator Power (Cache):       0.208559 mW

   ========= Area Analysis =======================
   FU Area:                         5472.068359 um^2 (0.005472 mm^2)
   Register Area:                   429.271088 um^2 (0.000429 mm^2)
   SPM Area:                        2177.365505 um^2 (0.002177 mm^2)
   Cache Area:                      0.000000 um^2 (0.000000 mm^2)

   Accelerator Area:                5901.339355 um^2 (0.005901 mm^2)
   Accelerator Area (SPM):          8078.704860 um^2 (0.008079 mm^2)
   Accelerator Area (Cache):        5901.339355 um^2 (0.005901 mm^2)

   ========= SPM Resizing  =======================
   SPM Optimized Leakage Power:     0.004248 mW
   SPM Opt Area:                    178.524902 um^2

6157854375: global: Timer #0 started at tick 6157854375
6158139375: global: Timer #7 started at tick 6158139375
6158779500: system.acctest.elem_matrix0_dma: SRC:0x0000000024030020, DST:0x0000000082278e00, LEN:65536
6158916250: global: Timer #7 stopped at tick 6158916250. Duration: 776875
6159155000: global: Timer #0 stopped at tick 6159155000. Duration: 1300625
6159169375: global: Number of accelerators running = 2
6165108500: system.acctest.elem_matrix0_dma: Transfer completed in 6.329 us
6165184375: global: Timer #0 started at tick 6165184375
6165503750: global: Timer #1 started at tick 6165503750
6165567500: global: Timer #1 stopped at tick 6165567500. Duration: 63750
6165766875: global: DAG ID = 1
6165779375: global: Node ID = 4
6165813750: global: Node deadline difference = -3738
6165826250: global: Predicted memory time / byte = 0.000201187 us/byte
6165838750: global: Predicted memory time = 13.185 us
6165851250: global: Predicted memory time / byte = 0.000201187 us/byte
6165863750: global: Predicted memory time = 13.185 us
6165876250: global: Predicted memory time / byte = 0.000182938 us/byte
6165888750: global: Predicted memory time = 11.989 us
6165901250: global: Predicted memory time / byte = 9.6283e-05 us/byte
6165913750: global: Predicted memory time = 6.31 us
6165926250: global: Predicted memory access size = 65536
6165938750: global: Predicted memory access size = 65536
6165951250: global: Predicted memory access size = 65536
6165963750: global: Predicted memory access size = 65536
6166046250: global: Timer #6 started at tick 6166046250
6166150625: global: Timer #7 started at tick 6166150625
6166781625: system.acctest.elem_matrix0_dma: SRC:0x0000000082238e00, DST:0x0000000024000020, LEN:65536
6166905000: global: Timer #7 stopped at tick 6166905000. Duration: 754375
6166920000: global: Timer #6 stopped at tick 6166920000. Duration: 873750
6166991875: global: Timer #0 stopped at tick 6166991875. Duration: 1807500
6167006250: global: Number of accelerators running = 2
6178799625: system.acctest.elem_matrix0_dma: Transfer completed in 12.018 us
6178875000: global: Timer #0 started at tick 6178875000
6179195000: global: Timer #1 started at tick 6179195000
6179248750: global: Timer #1 stopped at tick 6179248750. Duration: 53750
6179471875: global: Timer #6 started at tick 6179471875
6179549375: global: Timer #7 started at tick 6179549375
6180200875: system.acctest.elem_matrix0_dma: SRC:0x00000000821c8c80, DST:0x0000000024010020, LEN:65536
6180323750: global: Timer #7 stopped at tick 6180323750. Duration: 774375
6180349375: global: Timer #6 stopped at tick 6180349375. Duration: 877500
6180446250: global: Timer #0 stopped at tick 6180446250. Duration: 1571250
6180460625: global: Number of accelerators running = 2
6192341875: system.acctest.elem_matrix0_dma: Transfer completed in 12.141 us
6192417500: global: Timer #0 started at tick 6192417500
6192752500: global: Timer #1 started at tick 6192752500
6192806250: global: Timer #1 stopped at tick 6192806250. Duration: 53750
6193110000: global: Timer #6 started at tick 6193110000
6193173125: global: Timer #7 started at tick 6193173125
6194177500: global: Timer #7 stopped at tick 6194177500. Duration: 1004375
6194228750: global: Timer #6 stopped at tick 6194228750. Duration: 1118750
6194331875: global: Timer #0 stopped at tick 6194331875. Duration: 1914375
6194346250: global: Number of accelerators running = 2
********************************************************************************
system.acctest.elem_matrix0.compute
   ========= Performance Analysis =============
   Setup Time:                      9.386723seconds
   Simulation Time:                 185.987237seconds
   System Clock:                    1.000000GHz
   Transistor Latency:              1ns
   Runtime:                         10932 cycles
   Runtime:                         10.932000 us
   Stalls:                          1 cycles
   Executed Nodes:                  10930 cycles

********************************************************************************
   ========= Performance Analysis =================
   Setup Time:                      9386722501.000000ns
   Simulation Time:                 185987237362.000000ns
   System Clock:                    1.000000GHz
   Transistor Latency:              0ns
   Runtime:                         10932 cycles
   Runtime:                         0.000001 seconds
   Stalls:                          1 cycles
       Load Only:                   0 cycles
       Store Only:                  1 cycles
       Compute Only:                0 cycles
       Compute & Store:             0 cycles
       Load & Store:                0 cycles
       Load & Compute:              0 cycles
       Load & Compute & Store:      0 cycles
   Executed Nodes:                  10930 cycles
       Load Only:                   0 cycles
       Store Only:                  4 cycles
       Compute Only:                1 cycles
       Compute & Store:             21 cycles
       Load & Store:                0 cycles
       Load & Compute:              6 cycles
       Load & Compute & Store:      10898 cycles

   ========= Runtime FU's ========= (Max | Avg) ===
   Counter FU's:                      32 | 0.046838
   Integer Add/Sub FU's:               0 | 0.000000
   Integer Mul/Div FU's:               0 | 0.000000
   Integer Shifter FU's:               0 | 0.000000
   Integer Bitwise FU's:               1 | 0.000091
   Floating Point Float Add/Sub:       0 | 0.000000
   Floating Point Double Add/Sub:      0 | 0.000000
   Floating Point Float Mul/Div:      34 | 0.044252
   Floating Point Double Mul/Div:      0 | 0.000000
   0 Cycle Compare FU's:             102 | 0.046945
   GEP Instruction FU's:              96 | 0.046835
   Type Conversion FU's:               7 | 0.006782

   ========= Static FU's ==========================
   Counter FU's:                    0
   Integer Add/Sub FU's:            0
   Integer Mul/Div FU's:            0
   Integer Shifter FU's:            0
   Integer Bitwise FU's:            0
   Floating Point Float Add/Sub:    0
   Floating Point Double Add/Sub:   0
   Floating Point Float Mul/Div:    0
   Floating Point Double Mul/Div:   0
   0 Cycle Compare FU's:            0
   GEP Instruction FU's:            0
   Type Conversion FU's:            0
   Other:                           0

   ========= Pipeline Register Usage =============
   Total Number of Registers:       5641
   Max Register Usage Per Cycle:    137
   Avg Register Usage Per Cycle:    12.130992
   Avg Register Size (Bytes):       5.980606

   ========= Memory Configuration =================
   Cache Bus Ports:                 0
   Shared Cache Size:               0kB
   Local Bus Ports:                 0
   Private SPM Size:                256kB
   Private Read Ports:              0
   Private Write Ports:             0
   Private Read Bus Width:          64
   Private Write Bus Width:         64
       Memory Reads:                0
       Memory Writes:               0
   ========= Power Analysis ======================
   FU Leakage Power:                0.045377 mW 
   FU Dynamic Power:                0.142576 mW 
   FU Total Power:                  0.187953 mW 

   Registers Leakage Power:          0.005281 mW 
   Registers Dynamic Power:          0.015326 mW 
       Register Reads (Bits):        132616
       Register Writes (Bits):       133658
   Registers Total Power:            0.020607 mW

   SPM Leakage Power:               0.104100 mW
   SPM Read Dynamic Power:          5.190014 mW
   SPM Write Dynamic Power:         3.846212 mW
   SPM Total Power:                 9.140327 mW

   SPM Energy Per Read Access:      0.170493 nJ
   SPM Energy Per Write Access:     0.218190 nJ

   Cache Leakage Power:             0.000000 mW
   Cache Read Dynamic Power:        0.000000 mW
   Cache Write Dynamic Power:       0.000000 mW
   Cache Total Power:               0.000000 mW

   Accelerator Power:               0.208559 mW
   Accelerator Power (SPM):         9.348887 mW
   Accelerator Power (Cache):       0.208559 mW

   ========= Area Analysis =======================
   FU Area:                         5472.068359 um^2 (0.005472 mm^2)
   Register Area:                   429.271088 um^2 (0.000429 mm^2)
   SPM Area:                        2177.365505 um^2 (0.002177 mm^2)
   Cache Area:                      0.000000 um^2 (0.000000 mm^2)

   Accelerator Area:                5901.339355 um^2 (0.005901 mm^2)
   Accelerator Area (SPM):          8078.704860 um^2 (0.008079 mm^2)
   Accelerator Area (Cache):        5901.339355 um^2 (0.005901 mm^2)

   ========= SPM Resizing  =======================
   SPM Optimized Leakage Power:     0.004248 mW
   SPM Opt Area:                    178.524902 um^2

6205081250: global: Timer #0 started at tick 6205081250
6205328125: global: Timer #3 started at tick 6205328125
6205396875: global: Timer #4 started at tick 6205396875
6205473125: global: Timer #4 stopped at tick 6205473125. Duration: 76250
6205484375: global: Timer #5 started at tick 6205484375
6205603750: global: Timer #5 stopped at tick 6205603750. Duration: 119375
6205767500: global: Timer #3 stopped at tick 6205767500. Duration: 439375
6205828750: global: Timer #2 started at tick 6205828750
6205964375: global: Timer #2 stopped at tick 6205964375. Duration: 135625
6206208125: global: DAG ID = 1
6206220625: global: Node ID = 5
6206233750: global: Node deadline difference = -3543
6206246250: global: Predicted memory time / byte = 0.000182541 us/byte
6206258750: global: Predicted memory time = 23.926 us
6206271250: global: Predicted memory time / byte = 0.000182541 us/byte
6206283750: global: Predicted memory time = 0 us
6206296250: global: Predicted memory time / byte = 0.000184196 us/byte
6206308750: global: Predicted memory time = 24.143 us
6206321250: global: Predicted memory time / byte = 0 us/byte
6206333750: global: Predicted memory time = 0 us
6206346250: global: Predicted memory access size = 131072
6206358750: global: Predicted memory access size = 131072
6206371250: global: Predicted memory access size = 0
6206383750: global: Predicted memory access size = 0
6206471875: global: Timer #6 started at tick 6206471875
6206644375: global: Timer #7 started at tick 6206644375
6207290875: system.acctest.elem_matrix0_dma: SRC:0x00000000821d8c80, DST:0x0000000024010020, LEN:65536
6207421250: global: Timer #7 stopped at tick 6207421250. Duration: 776875
6207443750: global: Timer #6 stopped at tick 6207443750. Duration: 971875
6207515625: global: Timer #0 stopped at tick 6207515625. Duration: 2434375
6207530000: global: Number of accelerators running = 2
6219501875: system.acctest.elem_matrix0_dma: Transfer completed in 12.211 us
6219577500: global: Timer #0 started at tick 6219577500
6219899375: global: Timer #1 started at tick 6219899375
6219953125: global: Timer #1 stopped at tick 6219953125. Duration: 53750
6220175000: global: Timer #6 started at tick 6220175000
6220254375: global: Timer #7 started at tick 6220254375
6221257500: global: Timer #7 stopped at tick 6221257500. Duration: 1003125
6221314375: global: Timer #6 stopped at tick 6221314375. Duration: 1139375
6221406875: global: Timer #0 stopped at tick 6221406875. Duration: 1829375
6221421250: global: Number of accelerators running = 2
********************************************************************************
system.acctest.elem_matrix0.compute
   ========= Performance Analysis =============
   Setup Time:                      13.576210seconds
   Simulation Time:                 207.126758seconds
   System Clock:                    1.000000GHz
   Transistor Latency:              1ns
   Runtime:                         10932 cycles
   Runtime:                         10.932000 us
   Stalls:                          0 cycles
   Executed Nodes:                  10931 cycles

********************************************************************************
   ========= Performance Analysis =================
   Setup Time:                      13576209907.000000ns
   Simulation Time:                 207126758338.000000ns
   System Clock:                    1.000000GHz
   Transistor Latency:              0ns
   Runtime:                         10932 cycles
   Runtime:                         0.000001 seconds
   Stalls:                          0 cycles
       Load Only:                   0 cycles
       Store Only:                  0 cycles
       Compute Only:                0 cycles
       Compute & Store:             0 cycles
       Load & Store:                0 cycles
       Load & Compute:              0 cycles
       Load & Compute & Store:      0 cycles
   Executed Nodes:                  10931 cycles
       Load Only:                   0 cycles
       Store Only:                  5 cycles
       Compute Only:                1 cycles
       Compute & Store:             21 cycles
       Load & Store:                0 cycles
       Load & Compute:              7 cycles
       Load & Compute & Store:      10897 cycles

   ========= Runtime FU's ========= (Max | Avg) ===
   Counter FU's:                      32 | 0.046838
   Integer Add/Sub FU's:               0 | 0.000000
   Integer Mul/Div FU's:               0 | 0.000000
   Integer Shifter FU's:               0 | 0.000000
   Integer Bitwise FU's:               1 | 0.000091
[...]
   Private Write Ports:             0
   Private Read Bus Width:          64
   Private Write Bus Width:         64
       Memory Reads:                0
       Memory Writes:               0
   ========= Power Analysis ======================
   FU Leakage Power:                0.519269 mW 
   FU Dynamic Power:                0.154621 mW 
   FU Total Power:                  0.673890 mW 

   Registers Leakage Power:          0.005281 mW 
   Registers Dynamic Power:          0.015326 mW 
       Register Reads (Bits):        132616
       Register Writes (Bits):       133658
   Registers Total Power:            0.020607 mW

   SPM Leakage Power:               0.104100 mW
   SPM Read Dynamic Power:          25.057096 mW
   SPM Write Dynamic Power:         19.805709 mW
   SPM Total Power:                 44.966905 mW

   SPM Energy Per Read Access:      0.170493 nJ
   SPM Energy Per Write Access:     0.218190 nJ

   Cache Leakage Power:             0.000000 mW
   Cache Read Dynamic Power:        0.000000 mW
   Cache Write Dynamic Power:       0.000000 mW
   Cache Total Power:               0.000000 mW

   Accelerator Power:               0.694497 mW
   Accelerator Power (SPM):         45.661402 mW
   Accelerator Power (Cache):       0.694497 mW

   ========= Area Analysis =======================
   FU Area:                         70212.562500 um^2 (0.070213 mm^2)
   Register Area:                   429.271088 um^2 (0.000429 mm^2)
   SPM Area:                        2177.365505 um^2 (0.002177 mm^2)
   Cache Area:                      0.000000 um^2 (0.000000 mm^2)

   Accelerator Area:                70641.835938 um^2 (0.070642 mm^2)
   Accelerator Area (SPM):          72819.201442 um^2 (0.072819 mm^2)
   Accelerator Area (Cache):        70641.835938 um^2 (0.070642 mm^2)

   ========= SPM Resizing  =======================
   SPM Optimized Leakage Power:     0.004248 mW
   SPM Opt Area:                    178.524902 um^2

14668519375: global: Timer #0 started at tick 14668519375
14668751250: global: Timer #3 started at tick 14668751250
14668770625: global: Timer #4 started at tick 14668770625
14668832500: global: Timer #4 stopped at tick 14668832500. Duration: 61875
14668843750: global: Timer #5 started at tick 14668843750
14669070625: global: Timer #5 stopped at tick 14669070625. Duration: 226875
14669241875: global: Timer #3 stopped at tick 14669241875. Duration: 490625
14669291250: global: Timer #2 started at tick 14669291250
14669353125: global: Timer #2 stopped at tick 14669353125. Duration: 61875
14669584375: global: DAG ID = 0
14669596875: global: Node ID = 13
14669610000: global: Node deadline difference = -7821
14669622500: global: Predicted memory time / byte = 0.00015654 us/byte
14669635000: global: Predicted memory time = 10.259 us
14669647500: global: Predicted memory time / byte = 0.00015654 us/byte
14669660000: global: Predicted memory time = 0 us
14669672500: global: Predicted memory time / byte = 0.000181976 us/byte
14669685000: global: Predicted memory time = 11.926 us
14669697500: global: Predicted memory time / byte = 0 us/byte
14669710000: global: Predicted memory time = 0 us
14669722500: global: Predicted memory access size = 65536
14669735000: global: Predicted memory access size = 65536
14669747500: global: Predicted memory access size = 0
14669760000: global: Predicted memory access size = 0
14669842500: global: Timer #6 started at tick 14669842500
14670072500: global: Timer #7 started at tick 14670072500
14670715875: system.acctest.elem_matrix0_dma: SRC:0x0000000082184b00, DST:0x0000000024010020, LEN:65536
14670838750: global: Timer #7 stopped at tick 14670838750. Duration: 766250
14670853750: global: Timer #6 stopped at tick 14670853750. Duration: 1011250
14670939375: global: Timer #0 stopped at tick 14670939375. Duration: 2420000
14670953750: global: Number of accelerators running = 1
14682690875: system.acctest.elem_matrix0_dma: Transfer completed in 11.975 us
14682767500: global: Timer #0 started at tick 14682767500
14683091875: global: Timer #1 started at tick 14683091875
14683145625: global: Timer #1 stopped at tick 14683145625. Duration: 53750
14683368750: global: Timer #6 started at tick 14683368750
14683435000: global: Timer #7 started at tick 14683435000
14684437500: global: Timer #7 stopped at tick 14684437500. Duration: 1002500
14684493125: global: Timer #6 stopped at tick 14684493125. Duration: 1124375
14684598750: global: Timer #0 stopped at tick 14684598750. Duration: 1831250
14684613125: global: Number of accelerators running = 1
********************************************************************************
system.acctest.elem_matrix0.compute
   ========= Performance Analysis =============
   Setup Time:                      5.967451seconds
   Simulation Time:                 84.556328seconds
   System Clock:                    1.000000GHz
   Transistor Latency:              1ns
   Runtime:                         10932 cycles
   Runtime:                         10.932000 us
   Stalls:                          0 cycles
   Executed Nodes:                  10931 cycles

********************************************************************************
   ========= Performance Analysis =================
   Setup Time:                      5967450543.000000ns
   Simulation Time:                 84556328490.000000ns
   System Clock:                    1.000000GHz
   Transistor Latency:              0ns
   Runtime:                         10932 cycles
   Runtime:                         0.000001 seconds
   Stalls:                          0 cycles
       Load Only:                   0 cycles
       Store Only:                  0 cycles
       Compute Only:                0 cycles
       Compute & Store:             0 cycles
       Load & Store:                0 cycles
       Load & Compute:              0 cycles
       Load & Compute & Store:      0 cycles
   Executed Nodes:                  10931 cycles
       Load Only:                   0 cycles
       Store Only:                  5 cycles
       Compute Only:                1 cycles
       Compute & Store:             21 cycles
       Load & Store:                0 cycles
       Load & Compute:              7 cycles
       Load & Compute & Store:      10897 cycles

   ========= Runtime FU's ========= (Max | Avg) ===
   Counter FU's:                      32 | 0.046838
   Integer Add/Sub FU's:               0 | 0.000000
   Integer Mul/Div FU's:               0 | 0.000000
   Integer Shifter FU's:               0 | 0.000000
   Integer Bitwise FU's:               1 | 0.000091
   Floating Point Float Add/Sub:      34 | 0.044252
   Floating Point Double Add/Sub:      0 | 0.000000
   Floating Point Float Mul/Div:       0 | 0.000000
   Floating Point Double Mul/Div:      0 | 0.000000
   0 Cycle Compare FU's:             102 | 0.046974
   GEP Instruction FU's:              96 | 0.046835
   Type Conversion FU's:               7 | 0.006782

   ========= Static FU's ==========================
   Counter FU's:                    0
   Integer Add/Sub FU's:            0
   Integer Mul/Div FU's:            0
   Integer Shifter FU's:            0
   Integer Bitwise FU's:            0
   Floating Point Float Add/Sub:    0
   Floating Point Double Add/Sub:   0
   Floating Point Float Mul/Div:    0
   Floating Point Double Mul/Div:   0
   0 Cycle Compare FU's:            0
   GEP Instruction FU's:            0
   Type Conversion FU's:            0
   Other:                           0

   ========= Pipeline Register Usage =============
   Total Number of Registers:       5641
   Max Register Usage Per Cycle:    138
   Avg Register Usage Per Cycle:    12.130992
   Avg Register Size (Bytes):       5.980606

   ========= Memory Configuration =================
   Cache Bus Ports:                 0
   Shared Cache Size:               0kB
   Local Bus Ports:                 0
   Private SPM Size:                256kB
   Private Read Ports:              0
   Private Write Ports:             0
   Private Read Bus Width:          64
   Private Write Bus Width:         64
       Memory Reads:                0
       Memory Writes:               0
   ========= Power Analysis ======================
   FU Leakage Power:                0.519269 mW 
   FU Dynamic Power:                0.154621 mW 
   FU Total Power:                  0.673890 mW 

   Registers Leakage Power:          0.005281 mW 
   Registers Dynamic Power:          0.015326 mW 
       Register Reads (Bits):        132616
       Register Writes (Bits):       133658
   Registers Total Power:            0.020607 mW

   SPM Leakage Power:               0.104100 mW
   SPM Read Dynamic Power:          25.157261 mW
   SPM Write Dynamic Power:         19.857189 mW
   SPM Total Power:                 45.118550 mW

   SPM Energy Per Read Access:      0.170493 nJ
   SPM Energy Per Write Access:     0.218190 nJ

   Cache Leakage Power:             0.000000 mW
   Cache Read Dynamic Power:        0.000000 mW
   Cache Write Dynamic Power:       0.000000 mW
   Cache Total Power:               0.000000 mW

   Accelerator Power:               0.694497 mW
   Accelerator Power (SPM):         45.813047 mW
   Accelerator Power (Cache):       0.694497 mW

   ========= Area Analysis =======================
   FU Area:                         70212.562500 um^2 (0.070213 mm^2)
   Register Area:                   429.271088 um^2 (0.000429 mm^2)
   SPM Area:                        2177.365505 um^2 (0.002177 mm^2)
   Cache Area:                      0.000000 um^2 (0.000000 mm^2)

   Accelerator Area:                70641.835938 um^2 (0.070642 mm^2)
   Accelerator Area (SPM):          72819.201442 um^2 (0.072819 mm^2)
   Accelerator Area (Cache):        70641.835938 um^2 (0.070642 mm^2)

   ========= SPM Resizing  =======================
   SPM Optimized Leakage Power:     0.004248 mW
   SPM Opt Area:                    178.524902 um^2

14695334375: global: Timer #0 started at tick 14695334375
14695625000: global: Timer #3 started at tick 14695625000
14695644375: global: Timer #4 started at tick 14695644375
14695689375: global: Timer #4 stopped at tick 14695689375. Duration: 45000
14695700625: global: Timer #5 started at tick 14695700625
14695726875: global: Timer #5 stopped at tick 14695726875. Duration: 26250
14695941250: global: Timer #3 stopped at tick 14695941250. Duration: 316250
14695990625: global: Timer #2 started at tick 14695990625
14696044375: global: Timer #2 stopped at tick 14696044375. Duration: 53750
14696286250: global: DAG ID = 0
14696298750: global: Node ID = 16
14696311875: global: Node deadline difference = -7851
14696324375: global: Predicted memory time / byte = 0.000181976 us/byte
14696336875: global: Predicted memory time = 11.926 us
14696349375: global: Predicted memory time / byte = 0.000181976 us/byte
14696361875: global: Predicted memory time = 0 us
14696374375: global: Predicted memory time / byte = 0.000182632 us/byte
14696386875: global: Predicted memory time = 11.969 us
14696399375: global: Predicted memory time / byte = 0 us/byte
14696411875: global: Predicted memory time = 0 us
14696424375: global: Predicted memory access size = 65536
14696436875: global: Predicted memory access size = 65536
14696449375: global: Predicted memory access size = 0
14696461875: global: Predicted memory access size = 0
14696643750: global: Timer #6 started at tick 14696643750
14696780625: global: Timer #7 started at tick 14696780625
14697456625: system.acctest.harris_non_max0_dma: SRC:0x0000000024020020, DST:0x0000000026000020, LEN:65536
14697643125: global: Timer #7 stopped at tick 14697643125. Duration: 862500
14697665625: global: Timer #6 stopped at tick 14697665625. Duration: 1021875
14697742500: global: Timer #0 stopped at tick 14697742500. Duration: 2408125
14697756875: global: Number of accelerators running = 1
14707717625: system.acctest.harris_non_max0_dma: Transfer completed in 10.261 us
14707813750: global: Timer #0 started at tick 14707813750
14708153125: global: Timer #1 started at tick 14708153125
14708206875: global: Timer #1 stopped at tick 14708206875. Duration: 53750
14708430000: global: Timer #6 started at tick 14708430000
14708535625: global: Timer #7 started at tick 14708535625
14709051250: global: Timer #7 stopped at tick 14709051250. Duration: 515625
14709111875: global: Timer #6 stopped at tick 14709111875. Duration: 681875
14709208125: global: Timer #0 stopped at tick 14709208125. Duration: 1394375
14709222500: global: Number of accelerators running = 1
********************************************************************************
system.acctest.harris_non_max0.compute
   ========= Performance Analysis =============
   Setup Time:                      0.004652seconds
   Simulation Time:                 2.054042seconds
   System Clock:                    1.000000GHz
   Transistor Latency:              1ns
   Runtime:                         105010 cycles
   Runtime:                         105.010000 us
   Stalls:                          0 cycles
   Executed Nodes:                  105009 cycles

********************************************************************************
   ========= Performance Analysis =================
   Setup Time:                      4652070.000000ns
   Simulation Time:                 2054041758.000000ns
   System Clock:                    1.000000GHz
   Transistor Latency:              0ns
   Runtime:                         105010 cycles
   Runtime:                         0.000011 seconds
   Stalls:                          0 cycles
       Load Only:                   0 cycles
       Store Only:                  0 cycles
       Compute Only:                0 cycles
       Compute & Store:             0 cycles
       Load & Store:                0 cycles
       Load & Compute:              0 cycles
       Load & Compute & Store:      0 cycles
   Executed Nodes:                  105009 cycles
       Load Only:                   0 cycles
       Store Only:                  0 cycles
       Compute Only:                72241 cycles
       Compute & Store:             16384 cycles
       Load & Store:                0 cycles
       Load & Compute:              16384 cycles
       Load & Compute & Store:      0 cycles

   ========= Runtime FU's ========= (Max | Avg) ===
   Counter FU's:                       2 | 0.167889
   Integer Add/Sub FU's:               2 | 0.261670
   Integer Mul/Div FU's:               0 | 0.000000
   Integer Shifter FU's:               3 | 0.018017
   Integer Bitwise FU's:               1 | 0.472964
   Floating Point Float Add/Sub:       0 | 0.000000
   Floating Point Double Add/Sub:      0 | 0.000000
   Floating Point Float Mul/Div:       0 | 0.000000
   Floating Point Double Mul/Div:      0 | 0.000000
   0 Cycle Compare FU's:              26 | 0.199329
   GEP Instruction FU's:               3 | 0.208571
   Type Conversion FU's:              14 | 0.062158

   ========= Static FU's ==========================
   Counter FU's:                    0
   Integer Add/Sub FU's:            0
   Integer Mul/Div FU's:            0
   Integer Shifter FU's:            0
   Integer Bitwise FU's:            0
   Floating Point Float Add/Sub:    0
   Floating Point Double Add/Sub:   0
   Floating Point Float Mul/Div:    0
   Floating Point Double Mul/Div:   0
   0 Cycle Compare FU's:            0
   GEP Instruction FU's:            0
   Type Conversion FU's:            0
   Other:                           0

   ========= Pipeline Register Usage =============
   Total Number of Registers:       146
   Max Register Usage Per Cycle:    20
   Avg Register Usage Per Cycle:    5.029864
   Avg Register Size (Bytes):       5.546762

   ========= Memory Configuration =================
   Cache Bus Ports:                 0
   Shared Cache Size:               0kB
   Local Bus Ports:                 0
   Private SPM Size:                192kB
   Private Read Ports:              0
   Private Write Ports:             0
   Private Read Bus Width:          64
   Private Write Bus Width:         64
       Memory Reads:                0
       Memory Writes:               0
   ========= Power Analysis ======================
   FU Leakage Power:                0.010458 mW 
   FU Dynamic Power:                2.202634 mW 
   FU Total Power:                  2.213092 mW 

   Registers Leakage Power:          0.002041 mW 
   Registers Dynamic Power:          0.236415 mW 
       Register Reads (Bits):        528188
       Register Writes (Bits):       578368
   Registers Total Power:            0.238456 mW

   SPM Leakage Power:               0.068382 mW
   SPM Read Dynamic Power:          0.522209 mW
   SPM Write Dynamic Power:         0.561696 mW
   SPM Total Power:                 1.152287 mW

   SPM Energy Per Read Access:      0.108255 nJ
   SPM Energy Per Write Access:     0.137710 nJ

   Cache Leakage Power:             0.000000 mW
   Cache Read Dynamic Power:        0.000000 mW
   Cache Write Dynamic Power:       0.000000 mW
   Cache Total Power:               0.000000 mW

   Accelerator Power:               2.451548 mW
   Accelerator Power (SPM):         3.603836 mW
   Accelerator Power (Cache):       2.451548 mW

   ========= Area Analysis =======================
   FU Area:                         799.308228 um^2 (0.000799 mm^2)
   Register Area:                   165.887924 um^2 (0.000166 mm^2)
   SPM Area:                        1011.904012 um^2 (0.001012 mm^2)
   Cache Area:                      0.000000 um^2 (0.000000 mm^2)

   Accelerator Area:                965.196167 um^2 (0.000965 mm^2)
   Accelerator Area (SPM):          1977.100179 um^2 (0.001977 mm^2)
   Accelerator Area (Cache):        965.196167 um^2 (0.000965 mm^2)

   ========= SPM Resizing  =======================
   SPM Optimized Leakage Power:     0.001770 mW
   SPM Opt Area:                    77.453784 um^2

14814015000: global: Timer #0 started at tick 14814015000
14814243750: global: Timer #7 started at tick 14814243750
14814888750: system.acctest.harris_non_max0_dma: SRC:0x0000000026020020, DST:0x00000000821a4c80, LEN:16384
14815041250: global: Timer #7 stopped at tick 14815041250. Duration: 797500
14815283125: global: Timer #0 stopped at tick 14815283125. Duration: 1268125
14815297500: global: Number of accelerators running = 1
14816520750: system.acctest.harris_non_max0_dma: Transfer completed in 1.632 us
14816597500: global: Timer #0 started at tick 14816597500
14816931875: global: Timer #1 started at tick 14816931875
14816991250: global: Timer #1 stopped at tick 14816991250. Duration: 59375
14817190625: global: DAG ID = 0
14817203125: global: Node ID = 17
14817226875: global: DAG execution time = 8812
14817240000: global: DAG deadline difference = -7855
14817257500: global: Node deadline difference = -7855
14817270000: global: Predicted memory time / byte = 0.000182632 us/byte
14817282500: global: Predicted memory time = 11.969 us
14817295000: global: Predicted memory time / byte = 0.000182632 us/byte
14817307500: global: Predicted memory time = 2.99225 us
14817320000: global: Predicted memory time / byte = 0.000156021 us/byte
14817332500: global: Predicted memory time = 10.225 us
14817345000: global: Predicted memory time / byte = 9.88159e-05 us/byte
14817357500: global: Predicted memory time = 1.619 us
14817370000: global: Predicted memory access size = 65536
14817382500: global: Predicted memory access size = 65536
14817395000: global: Predicted memory access size = 16384
14817407500: global: Predicted memory access size = 16384
14817514375: global: Timer #0 stopped at tick 14817514375. Duration: 916875
14817528750: global: Number of accelerators running = 0
14817609375: global: Number of forwards = 135
14817902500: global: Number of colocations = 123
14817921250: global: Number of DAG deadlines met = 2
14817940000: global: Number of node deadlines met = 162
14817973750: global: Total predicted compute time = 7624 us
Exiting @ tick 14818118125 because m5_exit instruction encountered
