gem5 Simulator System.  http://gem5.org
gem5 is copyrighted software; use the --copyright option for details.

gem5 compiled May 11 2023 13:12:28
gem5 started May 28 2023 23:57:36
gem5 executing on node4x10a.cs.rochester.edu, pid 24443
command line: /u/sgupta45/gem5-SALAM/build/ARM/gem5_bus.opt --debug-flags=HWACC,CommInterface,LLVMInterface,StreamDma,NoncoherentDma,TickTimer,SchedulerStats --outdir=BM_ARM_OUT/comb_2/canny_0_deblur_0_gru_1_harris_0_lstm_1_LAX configs/SALAM/scheduler.py --mem-size=4GB --mem-type=LPDDR5_6400_1x16_BG_BL32 --kernel=/u/sgupta45/gem5-SALAM/benchmarks/scheduler/sw/bin_comb_2/canny_0_deblur_0_gru_1_harris_0_lstm_1_LAX.elf --vans-config-path=/u/sgupta45/VANS/config --disk-image=/u/sgupta45/gem5-SALAM/baremetal/common/fake.iso --machine-type=VExpress_GEM5_V1 --dtb-file=none --bare-metal --cpu-type=ex5_LITTLE --cpu-clock=1.6GHz --accpath=/u/sgupta45/gem5-SALAM/benchmarks --caches --cacheline_size=64 --l1d_size=32kB --l1d_assoc=4 --l1i_size=32kB --l1i_assoc=2

Global frequency set at 1000000000000 ticks per second
Cycle Counts Loaded!
Cycle Counts Loaded!
Cycle Counts Loaded!
Cycle Counts Loaded!
Cycle Counts Loaded!
Cycle Counts Loaded!
Cycle Counts Loaded!
Cycle Counts Loaded!
Cycle Counts Loaded!
Cycle Counts Loaded!
Cycle Counts Loaded!
**** REAL SIMULATION ****
7187390625: global: Timer #2 started at tick 7187390625
7188157500: global: Timer #2 stopped at tick 7188157500. Duration: 766875
7208288750: global: Timer #2 started at tick 7208288750
7208793750: global: Timer #2 stopped at tick 7208793750. Duration: 505000
7246760875: system.acctest.elem_matrix0_dma: SRC:0x0000000082178940, DST:0x0000000024000020, LEN:65536
7247280625: global: Number of accelerators running = 1
7258836875: system.acctest.elem_matrix0_dma: Transfer completed in 12.076 us
7259300625: global: Timer #0 started at tick 7259300625
7259775625: global: Timer #1 started at tick 7259775625
7260595625: global: Timer #1 stopped at tick 7260595625. Duration: 820000
7275656625: system.acctest.elem_matrix0_dma: SRC:0x0000000082078780, DST:0x0000000024010020, LEN:65536
7276238750: global: Timer #0 stopped at tick 7276238750. Duration: 16938125
7276298125: global: Number of accelerators running = 1
7287688625: system.acctest.elem_matrix0_dma: Transfer completed in 12.032 us
7287779375: global: Timer #0 started at tick 7287779375
7287923125: global: Timer #1 started at tick 7287923125
7288110625: global: Timer #1 stopped at tick 7288110625. Duration: 187500
7290204375: global: Timer #0 stopped at tick 7290204375. Duration: 2425000
7290218750: global: Number of accelerators running = 1
********************************************************************************
system.acctest.elem_matrix0.compute
   ========= Performance Analysis =============
   Setup Time:                      3.19794seconds
   Simulation Time:                 108.933seconds
   System Clock:                    1GHz
   Transistor Latency:              1ns
   Runtime:                         10932 cycles
   Runtime:                         10.932 us
   Stalls:                          0 cycles
   Executed Nodes:                  10931 cycles

********************************************************************************
   ========= Performance Analysis =================
   Setup Time:                      3.19794e+09ns
   Simulation Time:                 1.08933e+11ns
   System Clock:                    1GHz
   Transistor Latency:              0ns
   Runtime:                         10932 cycles
   Runtime:                         1.0932e-06 seconds
   Stalls:                          0 cycles
       Load Only:                   0 cycles
       Store Only:                  0 cycles
       Compute Only:                0 cycles
       Compute & Store:             0 cycles
       Load & Store:                0 cycles
       Load & Compute:              0 cycles
       Load & Compute & Store:      0 cycles
   Executed Nodes:                  10931 cycles
       Load Only:                   0 cycles
       Store Only:                  5 cycles
       Compute Only:                1 cycles
       Compute & Store:             21 cycles
       Load & Store:                0 cycles
       Load & Compute:              7 cycles
       Load & Compute & Store:      10897 cycles

   ========= Runtime FU's ========= (Max | Avg) ===
   Counter FU's:                      32 | 0.046838
   Integer Add/Sub FU's:               0 | 0.000000
   Integer Mul/Div FU's:               0 | 0.000000
   Integer Shifter FU's:               0 | 0.000000
   Integer Bitwise FU's:               1 | 0.000091
   Floating Point Float Add/Sub:      34 | 0.044252
   Floating Point Double Add/Sub:      0 | 0.000000
   Floating Point Float Mul/Div:       0 | 0.000000
   Floating Point Double Mul/Div:      0 | 0.000000
   0 Cycle Compare FU's:             102 | 0.046974
   GEP Instruction FU's:              96 | 0.046835
   Type Conversion FU's:               7 | 0.006782

   ========= Static FU's ==========================
   Counter FU's:                    0
   Integer Add/Sub FU's:            0
   Integer Mul/Div FU's:            0
   Integer Shifter FU's:            0
   Integer Bitwise FU's:            0
   Floating Point Float Add/Sub:    0
   Floating Point Double Add/Sub:   0
   Floating Point Float Mul/Div:    0
   Floating Point Double Mul/Div:   0
   0 Cycle Compare FU's:            0
   GEP Instruction FU's:            0
   Type Conversion FU's:            0
   Other:                           0

   ========= Pipeline Register Usage =============
   Total Number of Registers:       5641
   Max Register Usage Per Cycle:    138
   Avg Register Usage Per Cycle:    12.130992
   Avg Register Size (Bytes):       5.980606

   ========= Memory Configuration =================
   Cache Bus Ports:                 0
   Shared Cache Size:               0kB
   Local Bus Ports:                 0
   Private SPM Size:                256kB
   Private Read Ports:              0
   Private Write Ports:             0
   Private Read Bus Width:          64
   Private Write Bus Width:         64
       Memory Reads:                0
       Memory Writes:               0
   ========= Power Analysis ======================
   FU Leakage Power:                0.519269 mW 
   FU Dynamic Power:                0.154621 mW 
   FU Total Power:                  0.673890 mW 

   Registers Leakage Power:          0.005281 mW 
   Registers Dynamic Power:          0.015326 mW 
       Register Reads (Bits):        132616
       Register Writes (Bits):       133658
   Registers Total Power:            0.020607 mW

   SPM Leakage Power:               0.104100 mW
   SPM Read Dynamic Power:          1.997266 mW
   SPM Write Dynamic Power:         0.953321 mW
   SPM Total Power:                 3.054688 mW

   Cache Leakage Power:             0.000000 mW
   Cache Read Dynamic Power:        0.000000 mW
   Cache Write Dynamic Power:       0.000000 mW
   Cache Total Power:               0.000000 mW

   Accelerator Power:               0.694497 mW
   Accelerator Power (SPM):         3.749184 mW
   Accelerator Power (Cache):       0.694497 mW

   ========= Area Analysis =======================
   FU Area:                         70212.562500 um^2 (0.070213 mm^2)
   Register Area:                   429.271088 um^2 (0.000429 mm^2)
   SPM Area:                        2177.365505 um^2 (0.002177 mm^2)
   Cache Area:                      0.000000 um^2 (0.000000 mm^2)

   Accelerator Area:                70641.835938 um^2 (0.070642 mm^2)
   Accelerator Area (SPM):          72819.201442 um^2 (0.072819 mm^2)
   Accelerator Area (Cache):        70641.835938 um^2 (0.070642 mm^2)

   ========= SPM Resizing  =======================
   SPM Optimized Leakage Power:     0.004248 mW
   SPM Opt Area:                    178.524902 um^2

7300875625: global: Timer #0 started at tick 7300875625
7301266875: global: Timer #2 started at tick 7301266875
7302060000: global: Timer #2 stopped at tick 7302060000. Duration: 793125
7302441875: global: Timer #2 started at tick 7302441875
7302750000: global: Timer #2 stopped at tick 7302750000. Duration: 308125
7316561625: system.acctest.elem_matrix0_dma: SRC:0x0000000024020020, DST:0x0000000082088780, LEN:65536
7317083125: global: Timer #0 stopped at tick 7317083125. Duration: 16207500
7317097500: global: Number of accelerators running = 1
7322936625: system.acctest.elem_matrix0_dma: Transfer completed in 6.375 us
7323010625: global: Timer #0 started at tick 7323010625
7323320625: global: Timer #1 started at tick 7323320625
7323631875: global: Timer #1 stopped at tick 7323631875. Duration: 311250
7324083750: global: DAG ID = 0
7324146250: global: Node ID = 0
7324217500: global: Node deadline difference = -2228
7324237500: global: Predicted memory time / byte = 0 us/byte
7324255625: global: Predicted memory time = 0 us
7324273750: global: Predicted memory time / byte = 0 us/byte
7324291875: global: Predicted memory time = 0 us
7324310000: global: Predicted memory time / byte = 0.000189812 us/byte
7324328125: global: Predicted memory time = 24 us
7324346250: global: Predicted memory time / byte = 9.89685e-05 us/byte
7324364375: global: Predicted memory time = 6 us
7338705875: system.acctest.elem_matrix0_dma: SRC:0x0000000082038780, DST:0x0000000024000020, LEN:65536
7338948125: global: Timer #0 stopped at tick 7338948125. Duration: 15937500
7338962500: global: Number of accelerators running = 1
7350689875: system.acctest.elem_matrix0_dma: Transfer completed in 11.984 us
7350822500: global: Timer #0 started at tick 7350822500
7350904375: global: Timer #1 started at tick 7350904375
7351180000: global: Timer #1 stopped at tick 7351180000. Duration: 275625
7353098125: global: Timer #0 stopped at tick 7353098125. Duration: 2275625
7353112500: global: Number of accelerators running = 1
********************************************************************************
system.acctest.elem_matrix0.compute
   ========= Performance Analysis =============
   Setup Time:                      8.329616seconds
   Simulation Time:                 176.025757seconds
   System Clock:                    1.000000GHz
   Transistor Latency:              1ns
   Runtime:                         10932 cycles
   Runtime:                         10.932000 us
   Stalls:                          1 cycles
   Executed Nodes:                  10930 cycles

********************************************************************************
   ========= Performance Analysis =================
   Setup Time:                      8329615927.000001ns
   Simulation Time:                 176025756870.000000ns
   System Clock:                    1.000000GHz
   Transistor Latency:              0ns
   Runtime:                         10932 cycles
   Runtime:                         0.000001 seconds
   Stalls:                          1 cycles
       Load Only:                   0 cycles
       Store Only:                  1 cycles
       Compute Only:                0 cycles
       Compute & Store:             0 cycles
       Load & Store:                0 cycles
       Load & Compute:              0 cycles
       Load & Compute & Store:      0 cycles
   Executed Nodes:                  10930 cycles
       Load Only:                   0 cycles
       Store Only:                  4 cycles
       Compute Only:                1 cycles
       Compute & Store:             21 cycles
       Load & Store:                0 cycles
       Load & Compute:              6 cycles
       Load & Compute & Store:      10898 cycles

   ========= Runtime FU's ========= (Max | Avg) ===
   Counter FU's:                      32 | 0.046838
   Integer Add/Sub FU's:               0 | 0.000000
   Integer Mul/Div FU's:               0 | 0.000000
   Integer Shifter FU's:               0 | 0.000000
   Integer Bitwise FU's:               1 | 0.000091
   Floating Point Float Add/Sub:       0 | 0.000000
   Floating Point Double Add/Sub:      0 | 0.000000
   Floating Point Float Mul/Div:      34 | 0.044252
   Floating Point Double Mul/Div:      0 | 0.000000
   0 Cycle Compare FU's:             102 | 0.046945
   GEP Instruction FU's:              96 | 0.046835
   Type Conversion FU's:               7 | 0.006782

   ========= Static FU's ==========================
   Counter FU's:                    0
   Integer Add/Sub FU's:            0
   Integer Mul/Div FU's:            0
   Integer Shifter FU's:            0
   Integer Bitwise FU's:            0
   Floating Point Float Add/Sub:    0
   Floating Point Double Add/Sub:   0
   Floating Point Float Mul/Div:    0
   Floating Point Double Mul/Div:   0
   0 Cycle Compare FU's:            0
   GEP Instruction FU's:            0
   Type Conversion FU's:            0
   Other:                           0

   ========= Pipeline Register Usage =============
   Total Number of Registers:       5641
   Max Register Usage Per Cycle:    137
   Avg Register Usage Per Cycle:    12.130992
   Avg Register Size (Bytes):       5.980606

   ========= Memory Configuration =================
   Cache Bus Ports:                 0
   Shared Cache Size:               0kB
   Local Bus Ports:                 0
   Private SPM Size:                256kB
   Private Read Ports:              0
   Private Write Ports:             0
   Private Read Bus Width:          64
   Private Write Bus Width:         64
       Memory Reads:                0
       Memory Writes:               0
   ========= Power Analysis ======================
   FU Leakage Power:                0.045377 mW 
   FU Dynamic Power:                0.142576 mW 
   FU Total Power:                  0.187953 mW 

   Registers Leakage Power:          0.005281 mW 
   Registers Dynamic Power:          0.015326 mW 
       Register Reads (Bits):        132616
       Register Writes (Bits):       133658
   Registers Total Power:            0.020607 mW

   SPM Leakage Power:               0.104100 mW
   SPM Read Dynamic Power:          2.785289 mW
   SPM Write Dynamic Power:         2.044305 mW
   SPM Total Power:                 4.933694 mW

   Cache Leakage Power:             0.000000 mW
   Cache Read Dynamic Power:        0.000000 mW
   Cache Write Dynamic Power:       0.000000 mW
   Cache Total Power:               0.000000 mW

   Accelerator Power:               0.208559 mW
   Accelerator Power (SPM):         5.142254 mW
   Accelerator Power (Cache):       0.208559 mW

   ========= Area Analysis =======================
   FU Area:                         5472.068359 um^2 (0.005472 mm^2)
   Register Area:                   429.271088 um^2 (0.000429 mm^2)
   SPM Area:                        2177.365505 um^2 (0.002177 mm^2)
   Cache Area:                      0.000000 um^2 (0.000000 mm^2)

   Accelerator Area:                5901.339355 um^2 (0.005901 mm^2)
   Accelerator Area (SPM):          8078.704860 um^2 (0.008079 mm^2)
   Accelerator Area (Cache):        5901.339355 um^2 (0.005901 mm^2)

   ========= SPM Resizing  =======================
   SPM Optimized Leakage Power:     0.004248 mW
   SPM Opt Area:                    178.524902 um^2

7363839375: global: Timer #0 started at tick 7363839375
7364150000: global: Timer #2 started at tick 7364150000
7364408125: global: Timer #2 stopped at tick 7364408125. Duration: 258125
7364860000: global: DAG ID = 0
7364879375: global: Node ID = 5
7364897500: global: Node deadline difference = -2245
7364959375: global: Predicted memory time / byte = 0.000184998 us/byte
7364977500: global: Predicted memory time = 36.372 us
7364995625: global: Predicted memory time / byte = 9.89685e-05 us/byte
7365013750: global: Predicted memory time = 12.972 us
7365031875: global: Predicted memory time / byte = 0.000183533 us/byte
7365050000: global: Predicted memory time = 12 us
7365068125: global: Predicted memory time / byte = 0 us/byte
7365086250: global: Predicted memory time = 0 us
7378710875: system.acctest.elem_matrix0_dma: SRC:0x0000000082048780, DST:0x0000000024000020, LEN:65536
7378950000: global: Timer #0 stopped at tick 7378950000. Duration: 15110625
7378964375: global: Number of accelerators running = 1
7390675875: system.acctest.elem_matrix0_dma: Transfer completed in 11.965 us
7390749375: global: Timer #0 started at tick 7390749375
7390836875: global: Timer #1 started at tick 7390836875
7391105000: global: Timer #1 stopped at tick 7391105000. Duration: 268125
7392788750: global: Timer #0 stopped at tick 7392788750. Duration: 2039375
7392803125: global: Number of accelerators running = 1
********************************************************************************
system.acctest.elem_matrix0.compute
   ========= Performance Analysis =============
   Setup Time:                      6.630887seconds
   Simulation Time:                 171.212534seconds
   System Clock:                    1.000000GHz
   Transistor Latency:              1ns
   Runtime:                         10932 cycles
   Runtime:                         10.932000 us
   Stalls:                          0 cycles
   Executed Nodes:                  10931 cycles

********************************************************************************
   ========= Performance Analysis =================
   Setup Time:                      6630886530.000000ns
   Simulation Time:                 171212534211.000000ns
   System Clock:                    1.000000GHz
   Transistor Latency:              0ns
   Runtime:                         10932 cycles
   Runtime:                         0.000001 seconds
   Stalls:                          0 cycles
       Load Only:                   0 cycles
       Store Only:                  0 cycles
       Compute Only:                0 cycles
       Compute & Store:             0 cycles
       Load & Store:                0 cycles
       Load & Compute:              0 cycles
       Load & Compute & Store:      0 cycles
   Executed Nodes:                  10931 cycles
       Load Only:                   0 cycles
       Store Only:                  5 cycles
       Compute Only:                1 cycles
       Compute & Store:             21 cycles
       Load & Store:                0 cycles
       Load & Compute:              7 cycles
       Load & Compute & Store:      10897 cycles

   ========= Runtime FU's ========= (Max | Avg) ===
   Counter FU's:                      32 | 0.046838
   Integer Add/Sub FU's:               0 | 0.000000
   Integer Mul/Div FU's:               0 | 0.000000
   Integer Shifter FU's:               0 | 0.000000
   Integer Bitwise FU's:               1 | 0.000091
   Floating Point Float Add/Sub:      34 | 0.044252
   Floating Point Double Add/Sub:      0 | 0.000000
   Floating Point Float Mul/Div:       0 | 0.000000
   Floating Point Double Mul/Div:      0 | 0.000000
   0 Cycle Compare FU's:             102 | 0.046974
   GEP Instruction FU's:              96 | 0.046835
   Type Conversion FU's:               7 | 0.006782

   ========= Static FU's ==========================
   Counter FU's:                    0
   Integer Add/Sub FU's:            0
   Integer Mul/Div FU's:            0
   Integer Shifter FU's:            0
   Integer Bitwise FU's:            0
   Floating Point Float Add/Sub:    0
   Floating Point Double Add/Sub:   0
   Floating Point Float Mul/Div:    0
   Floating Point Double Mul/Div:   0
   0 Cycle Compare FU's:            0
   GEP Instruction FU's:            0
   Type Conversion FU's:            0
   Other:                           0

   ========= Pipeline Register Usage =============
   Total Number of Registers:       5641
   Max Register Usage Per Cycle:    138
   Avg Register Usage Per Cycle:    12.130992
   Avg Register Size (Bytes):       5.980606

   ========= Memory Configuration =================
   Cache Bus Ports:                 0
   Shared Cache Size:               0kB
   Local Bus Ports:                 0
   Private SPM Size:                256kB
   Private Read Ports:              0
   Private Write Ports:             0
   Private Read Bus Width:          64
   Private Write Bus Width:         64
       Memory Reads:                0
       Memory Writes:               0
   ========= Power Analysis ======================
   FU Leakage Power:                0.519269 mW 
   FU Dynamic Power:                0.154621 mW 
   FU Total Power:                  0.673890 mW 

   Registers Leakage Power:          0.005281 mW 
   Registers Dynamic Power:          0.015326 mW 
       Register Reads (Bits):        132616
       Register Writes (Bits):       133658
   Registers Total Power:            0.020607 mW

   SPM Leakage Power:               0.104100 mW
   SPM Read Dynamic Power:          3.776796 mW
   SPM Write Dynamic Power:         2.457440 mW
   SPM Total Power:                 6.338336 mW

   Cache Leakage Power:             0.000000 mW
   Cache Read Dynamic Power:        0.000000 mW
   Cache Write Dynamic Power:       0.000000 mW
   Cache Total Power:               0.000000 mW

   Accelerator Power:               0.694497 mW
   Accelerator Power (SPM):         7.032833 mW
   Accelerator Power (Cache):       0.694497 mW

   ========= Area Analysis =======================
   FU Area:                         70212.562500 um^2 (0.070213 mm^2)
   Register Area:                   429.271088 um^2 (0.000429 mm^2)
   SPM Area:                        2177.365505 um^2 (0.002177 mm^2)
   Cache Area:                      0.000000 um^2 (0.000000 mm^2)

   Accelerator Area:                70641.835938 um^2 (0.070642 mm^2)
   Accelerator Area (SPM):          72819.201442 um^2 (0.072819 mm^2)
   Accelerator Area (Cache):        70641.835938 um^2 (0.070642 mm^2)

   ========= SPM Resizing  =======================
   SPM Optimized Leakage Power:     0.004248 mW
   SPM Opt Area:                    178.524902 um^2

7403558125: global: Timer #0 started at tick 7403558125
7403800000: global: Timer #2 started at tick 7403800000
7404101250: global: Timer #2 stopped at tick 7404101250. Duration: 301250
7404333125: global: DAG ID = 0
7404346875: global: Node ID = 6
7404360000: global: Node deadline difference = -2262
7404372500: global: Predicted memory time / byte = 0.000183533 us/byte
7404385000: global: Predicted memory time = 36.084 us
7404397500: global: Predicted memory time / byte = 0.000183533 us/byte
7404410000: global: Predicted memory time = 24.056 us
7404422500: global: Predicted memory time / byte = 0.00018309 us/byte
7404435000: global: Predicted memory time = 11 us
7404447500: global: Predicted memory time / byte = 0 us/byte
7404460000: global: Predicted memory time = 0 us
7406012500: global: Timer #0 stopped at tick 7406012500. Duration: 2454375
7406025625: global: Number of accelerators running = 1
********************************************************************************
system.acctest.elem_matrix0.compute
   ========= Performance Analysis =============
   Setup Time:                      9.360607seconds
   Simulation Time:                 141.208429seconds
   System Clock:                    1.000000GHz
   Transistor Latency:              1ns
   Runtime:                         8316 cycles
   Runtime:                         8.316000 us
   Stalls:                          82 cycles
   Executed Nodes:                  8233 cycles

********************************************************************************
   ========= Performance Analysis =================
   Setup Time:                      9360606805.000000ns
   Simulation Time:                 141208428906.000000ns
   System Clock:                    1.000000GHz
   Transistor Latency:              0ns
   Runtime:                         8316 cycles
   Runtime:                         0.000001 seconds
   Stalls:                          82 cycles
       Load Only:                   0 cycles
       Store Only:                  77 cycles
       Compute Only:                0 cycles
       Compute & Store:             5 cycles
       Load & Store:                0 cycles
       Load & Compute:              0 cycles
       Load & Compute & Store:      0 cycles
   Executed Nodes:                  8233 cycles
       Load Only:                   0 cycles
       Store Only:                  11 cycles
       Compute Only:                1827 cycles
       Compute & Store:             3453 cycles
       Load & Store:                0 cycles
       Load & Compute:              774 cycles
       Load & Compute & Store:      2168 cycles

   ========= Runtime FU's ========= (Max | Avg) ===
   Counter FU's:                      32 | 0.061572
   Integer Add/Sub FU's:               0 | 0.000000
   Integer Mul/Div FU's:               0 | 0.000000
   Integer Shifter FU's:               0 | 0.000000
   Integer Bitwise FU's:               1 | 0.000120
   Floating Point Float Add/Sub:      80 | 0.302014
   Floating Point Double Add/Sub:      0 | 0.000000
   Floating Point Float Mul/Div:      35 | 0.056511
   Floating Point Double Mul/Div:      0 | 0.000000
   0 Cycle Compare FU's:              15 | 0.024828
   GEP Instruction FU's:              64 | 0.061568
   Type Conversion FU's:              66 | 0.120964

   ========= Static FU's ==========================
   Counter FU's:                    0
   Integer Add/Sub FU's:            0
   Integer Mul/Div FU's:            0
   Integer Shifter FU's:            0
   Integer Bitwise FU's:            0
   Floating Point Float Add/Sub:    0
   Floating Point Double Add/Sub:   0
   Floating Point Float Mul/Div:    0
   Floating Point Double Mul/Div:   0
   0 Cycle Compare FU's:            0
   GEP Instruction FU's:            0
   Type Conversion FU's:            0
   Other:                           0

   ========= Pipeline Register Usage =============
   Total Number of Registers:       5641
   Max Register Usage Per Cycle:    126
   Avg Register Usage Per Cycle:    27.706590
   Avg Register Size (Bytes):       5.993295

   ========= Memory Configuration =================
   Cache Bus Ports:                 0
   Shared Cache Size:               0kB
   Local Bus Ports:                 0
   Private SPM Size:                256kB
   Private Read Ports:              0
   Private Write Ports:             0
   Private Read Bus Width:          64
   Private Write Bus Width:         64
       Memory Reads:                0
       Memory Writes:               0
   ========= Power Analysis ======================
   FU Leakage Power:                1.265749 mW 
   FU Dynamic Power:                1.166708 mW 
   FU Total Power:                  2.432457 mW 

   Registers Leakage Power:          0.011908 mW 
   Registers Dynamic Power:          0.045645 mW 
       Register Reads (Bits):        230408
       Register Writes (Bits):       231961
   Registers Total Power:            0.057553 mW

   SPM Leakage Power:               0.104100 mW
   SPM Read Dynamic Power:          4.599549 mW
   SPM Write Dynamic Power:         2.880682 mW
   SPM Total Power:                 7.584331 mW

   Cache Leakage Power:             0.000000 mW
   Cache Read Dynamic Power:        0.000000 mW
   Cache Write Dynamic Power:       0.000000 mW
   Cache Total Power:               0.000000 mW

   Accelerator Power:               2.490010 mW
   Accelerator Power (SPM):         10.074342 mW
   Accelerator Power (Cache):       2.490010 mW

   ========= Area Analysis =======================
   FU Area:                         170559.593750 um^2 (0.170560 mm^2)
   Register Area:                   967.909180 um^2 (0.000968 mm^2)
   SPM Area:                        2177.365505 um^2 (0.002177 mm^2)
   Cache Area:                      0.000000 um^2 (0.000000 mm^2)

   Accelerator Area:                171527.500000 um^2 (0.171527 mm^2)
   Accelerator Area (SPM):          173704.865505 um^2 (0.173705 mm^2)
   Accelerator Area (Cache):        171527.500000 um^2 (0.171527 mm^2)

   ========= SPM Resizing  =======================
   SPM Optimized Leakage Power:     0.003887 mW
   SPM Opt Area:                    172.850411 um^2

7414187500: global: Timer #0 started at tick 7414187500
7414433750: global: Timer #2 started at tick 7414433750
7414665000: global: Timer #2 stopped at tick 7414665000. Duration: 231250
7415108750: global: DAG ID = 0
7415122500: global: Node ID = 7
7415135625: global: Node deadline difference = -2290
7415148125: global: Predicted memory time / byte = 0.00018309 us/byte
7415160625: global: Predicted memory time = 23.998 us
7415173125: global: Predicted memory time / byte = 0.00018309 us/byte
7415185625: global: Predicted memory time = 23.998 us
7415198125: global: Predicted memory time / byte = 0 us/byte
7415210625: global: Predicted memory time = 0 us
7415223125: global: Predicted memory time / byte = 0 us/byte
7415235625: global: Predicted memory time = 0 us
7428735875: system.acctest.elem_matrix0_dma: SRC:0x0000000082178940, DST:0x0000000024010020, LEN:65536
7428942500: global: Timer #0 stopped at tick 7428942500. Duration: 14755000
7428955625: global: Number of accelerators running = 1
7440713875: system.acctest.elem_matrix0_dma: Transfer completed in 11.978 us
7440787500: global: Timer #0 started at tick 7440787500
7440828125: global: Timer #1 started at tick 7440828125
7441095000: global: Timer #1 stopped at tick 7441095000. Duration: 266875
7442733750: global: Timer #0 stopped at tick 7442733750. Duration: 1946250
7442748125: global: Number of accelerators running = 1
********************************************************************************
system.acctest.elem_matrix0.compute
   ========= Performance Analysis =============
   Setup Time:                      7.827288seconds
   Simulation Time:                 201.340135seconds
   System Clock:                    1.000000GHz
   Transistor Latency:              1ns
   Runtime:                         10932 cycles
   Runtime:                         10.932000 us
   Stalls:                          1 cycles
   Executed Nodes:                  10930 cycles

********************************************************************************
   ========= Performance Analysis =================
   Setup Time:                      7827287971.000000ns
   Simulation Time:                 201340135100.000000ns
   System Clock:                    1.000000GHz
   Transistor Latency:              0ns
   Runtime:                         10932 cycles
   Runtime:                         0.000001 seconds
   Stalls:                          1 cycles
       Load Only:                   0 cycles
       Store Only:                  1 cycles
       Compute Only:                0 cycles
       Compute & Store:             0 cycles
       Load & Store:                0 cycles
       Load & Compute:              0 cycles
       Load & Compute & Store:      0 cycles
   Executed Nodes:                  10930 cycles
       Load Only:                   0 cycles
       Store Only:                  4 cycles
       Compute Only:                1 cycles
       Compute & Store:             21 cycles
       Load & Store:                0 cycles
       Load & Compute:              6 cycles
       Load & Compute & Store:      10898 cycles

   ========= Runtime FU's ========= (Max | Avg) ===
   Counter FU's:                      32 | 0.046838
   Integer Add/Sub FU's:               0 | 0.000000
   Integer Mul/Div FU's:               0 | 0.000000
   Integer Shifter FU's:               0 | 0.000000
   Integer Bitwise FU's:               1 | 0.000091
   Floating Point Float Add/Sub:       0 | 0.000000
   Floating Point Double Add/Sub:      0 | 0.000000
   Floating Point Float Mul/Div:      34 | 0.044252
   Floating Point Double Mul/Div:      0 | 0.000000
   0 Cycle Compare FU's:             102 | 0.046945
   GEP Instruction FU's:              96 | 0.046835
   Type Conversion FU's:               7 | 0.006782

   ========= Static FU's ==========================
   Counter FU's:                    0
   Integer Add/Sub FU's:            0
   Integer Mul/Div FU's:            0
   Integer Shifter FU's:            0
   Integer Bitwise FU's:            0
   Floating Point Float Add/Sub:    0
   Floating Point Double Add/Sub:   0
   Floating Point Float Mul/Div:    0
   Floating Point Double Mul/Div:   0
   0 Cycle Compare FU's:            0
   GEP Instruction FU's:            0
   Type Conversion FU's:            0
   Other:                           0

   ========= Pipeline Register Usage =============
   Total Number of Registers:       5641
   Max Register Usage Per Cycle:    137
   Avg Register Usage Per Cycle:    12.130992
   Avg Register Size (Bytes):       5.980606

   ========= Memory Configuration =================
   Cache Bus Ports:                 0
   Shared Cache Size:               0kB
   Local Bus Ports:                 0
   Private SPM Size:                256kB
   Private Read Ports:              0
   Private Write Ports:             0
   Private Read Bus Width:          64
   Private Write Bus Width:         64
       Memory Reads:                0
       Memory Writes:               0
   ========= Power Analysis ======================
   FU Leakage Power:                0.045377 mW 
   FU Dynamic Power:                0.142576 mW 
   FU Total Power:                  0.187953 mW 

   Registers Leakage Power:          0.005281 mW 
   Registers Dynamic Power:          0.015326 mW 
       Register Reads (Bits):        132616
       Register Writes (Bits):       133658
   Registers Total Power:            0.020607 mW

   SPM Leakage Power:               0.104100 mW
   SPM Read Dynamic Power:          4.784107 mW
   SPM Write Dynamic Power:         3.448926 mW
   SPM Total Power:                 8.337133 mW

   Cache Leakage Power:             0.000000 mW
   Cache Read Dynamic Power:        0.000000 mW
   Cache Write Dynamic Power:       0.000000 mW
   Cache Total Power:               0.000000 mW

   Accelerator Power:               0.208559 mW
   Accelerator Power (SPM):         8.545693 mW
   Accelerator Power (Cache):       0.208559 mW

   ========= Area Analysis =======================
   FU Area:                         5472.068359 um^2 (0.005472 mm^2)
   Register Area:                   429.271088 um^2 (0.000429 mm^2)
   SPM Area:                        2177.365505 um^2 (0.002177 mm^2)
   Cache Area:                      0.000000 um^2 (0.000000 mm^2)

   Accelerator Area:                5901.339355 um^2 (0.005901 mm^2)
   Accelerator Area (SPM):          8078.704860 um^2 (0.008079 mm^2)
   Accelerator Area (Cache):        5901.339355 um^2 (0.005901 mm^2)

   ========= SPM Resizing  =======================
   SPM Optimized Leakage Power:     0.004248 mW
   SPM Opt Area:                    178.524902 um^2

7453509375: global: Timer #0 started at tick 7453509375
7453755625: global: Timer #2 started at tick 7453755625
7454040625: global: Timer #2 stopped at tick 7454040625. Duration: 285000
7454265000: global: DAG ID = 0
7454278750: global: Node ID = 8
7454291875: global: Node deadline difference = -2308
7454304375: global: Predicted memory time / byte = 0.00018309 us/byte
7454316875: global: Predicted memory time = 35.997 us
7454329375: global: Predicted memory time / byte = 0.00018309 us/byte
7454341875: global: Predicted memory time = 23.998 us
7454354375: global: Predicted memory time / byte = 0.000182587 us/byte
7454366875: global: Predicted memory time = 11 us
7454379375: global: Predicted memory time / byte = 0 us/byte
7454391875: global: Predicted memory time = 0 us
7467971625: system.acctest.elem_matrix0_dma: SRC:0x0000000082078780, DST:0x0000000024000020, LEN:65536
7468172500: global: Timer #0 stopped at tick 7468172500. Duration: 14663125
7468185625: global: Number of accelerators running = 1
7479943625: system.acctest.elem_matrix0_dma: Transfer completed in 11.972 us
7480017500: global: Timer #0 started at tick 7480017500
7480059375: global: Timer #1 started at tick 7480059375
7480326250: global: Timer #1 stopped at tick 7480326250. Duration: 266875
7481958750: global: Timer #0 stopped at tick 7481958750. Duration: 1941250
7481973125: global: Number of accelerators running = 1
********************************************************************************
system.acctest.elem_matrix0.compute
   ========= Performance Analysis =============
   Setup Time:                      8.678950seconds
   Simulation Time:                 192.978960seconds
   System Clock:                    1.000000GHz
   Transistor Latency:              1ns
   Runtime:                         10932 cycles
   Runtime:                         10.932000 us
   Stalls:                          0 cycles
   Executed Nodes:                  10931 cycles

********************************************************************************
   ========= Performance Analysis =================
   Setup Time:                      8678949523.000000ns
   Simulation Time:                 192978959629.000000ns
   System Clock:                    1.000000GHz
   Transistor Latency:              0ns
   Runtime:                         10932 cycles
   Runtime:                         0.000001 seconds
   Stalls:                          0 cycles
       Load Only:                   0 cycles
       Store Only:                  0 cycles
       Compute Only:                0 cycles
       Compute & Store:             0 cycles
       Load & Store:                0 cycles
       Load & Compute:              0 cycles
       Load & Compute & Store:      0 cycles
   Executed Nodes:                  10931 cycles
       Load Only:                   0 cycles
       Store Only:                  5 cycles
       Compute Only:                1 cycles
       Compute & Store:             21 cycles
       Load & Store:                0 cycles
       Load & Compute:              7 cycles
       Load & Compute & Store:      10897 cycles

   ========= Runtime FU's ========= (Max | Avg) ===
   Counter FU's:                      32 | 0.046838
   Integer Add/Sub FU's:               0 | 0.000000
   Integer Mul/Div FU's:               0 | 0.000000
   Integer Shifter FU's:               0 | 0.000000
   Integer Bitwise FU's:               1 | 0.000091
   Floating Point Float Add/Sub:      34 | 0.044252
   Floating Point Double Add/Sub:      0 | 0.000000
   Floating Point Float Mul/Div:       0 | 0.000000
   Floating Point Double Mul/Div:      0 | 0.000000
   0 Cycle Compare FU's:             102 | 0.046974
   GEP Instruction FU's:              96 | 0.046835
   Type Conversion FU's:               7 | 0.006782

   ========= Static FU's ==========================
   Counter FU's:                    0
   Integer Add/Sub FU's:            0
   Integer Mul/Div FU's:            0
   Integer Shifter FU's:            0
   Integer Bitwise FU's:            0
   Floating Point Float Add/Sub:    0
   Floating Point Double Add/Sub:   0
   Floating Point Float Mul/Div:    0
   Floating Point Double Mul/Div:   0
   0 Cycle Compare FU's:            0
   GEP Instruction FU's:            0
   Type Conversion FU's:            0
   Other:                           0

   ========= Pipeline Register Usage =============
   Total Number of Registers:       5641
   Max Register Usage Per Cycle:    138
   Avg Register Usage Per Cycle:    12.130992
   Avg Register Size (Bytes):       5.980606

   ========= Memory Configuration =================
   Cache Bus Ports:                 0
   Shared Cache Size:               0kB
   Local Bus Ports:                 0
   Private SPM Size:                256kB
   Private Read Ports:              0
   Private Write Ports:             0
   Private Read Bus Width:          64
   Private Write Bus Width:         64
       Memory Reads:                0
       Memory Writes:               0
   ========= Power Analysis ======================
   FU Leakage Power:                0.519269 mW 
   FU Dynamic Power:                0.154621 mW 
   FU Total Power:                  0.673890 mW 

   Registers Leakage Power:          0.005281 mW 
   Registers Dynamic Power:          0.015326 mW 
       Register Reads (Bits):        132616
       Register Writes (Bits):       133658
   Registers Total Power:            0.020607 mW

   SPM Leakage Power:               0.104100 mW
   SPM Read Dynamic Power:          5.190014 mW
   SPM Write Dynamic Power:         3.846212 mW
   SPM Total Power:                 9.140327 mW

   Cache Leakage Power:             0.000000 mW
   Cache Read Dynamic Power:        0.000000 mW
   Cache Write Dynamic Power:       0.000000 mW
   Cache Total Power:               0.000000 mW

   Accelerator Power:               0.694497 mW
   Accelerator Power (SPM):         9.834824 mW
   Accelerator Power (Cache):       0.694497 mW

   ========= Area Analysis =======================
   FU Area:                         70212.562500 um^2 (0.070213 mm^2)
   Register Area:                   429.271088 um^2 (0.000429 mm^2)
   SPM Area:                        2177.365505 um^2 (0.002177 mm^2)
   Cache Area:                      0.000000 um^2 (0.000000 mm^2)

   Accelerator Area:                70641.835938 um^2 (0.070642 mm^2)
   Accelerator Area (SPM):          72819.201442 um^2 (0.072819 mm^2)
   Accelerator Area (Cache):        70641.835938 um^2 (0.070642 mm^2)

   ========= SPM Resizing  =======================
   SPM Optimized Leakage Power:     0.004248 mW
   SPM Opt Area:                    178.524902 um^2

7492734375: global: Timer #0 started at tick 7492734375
7492981250: global: Timer #2 started at tick 7492981250
7493278750: global: Timer #2 stopped at tick 7493278750. Duration: 297500
7506593750: system.acctest.elem_matrix0_dma: SRC:0x0000000024010020, DST:0x0000000082118780, LEN:65536
7506956250: global: Timer #0 stopped at tick 7506956250. Duration: 14221875
7506970625: global: Number of accelerators running = 1
7512928750: system.acctest.elem_matrix0_dma: Transfer completed in 6.335 us
7513002500: global: Timer #0 started at tick 7513002500
7513056250: global: Timer #1 started at tick 7513056250
7513206250: global: Timer #1 stopped at tick 7513206250. Duration: 150000
7513532500: global: DAG ID = 0
7513546250: global: Node ID = 9
7513565625: global: Node deadline difference = -2306
7513578125: global: Predicted memory time / byte = 0.000182587 us/byte
7513590625: global: Predicted memory time = 35.898 us
7513603125: global: Predicted memory time / byte = 0.000182587 us/byte
7513615625: global: Predicted memory time = 23.932 us
7513628125: global: Predicted memory time / byte = 0.00018251 us/byte
7513640625: global: Predicted memory time = 11 us
7513653125: global: Predicted memory time / byte = 9.65118e-05 us/byte
7513665625: global: Predicted memory time = 6 us
7527352375: system.acctest.elem_matrix0_dma: SRC:0x0000000082178940, DST:0x0000000024000020, LEN:65536
7527586875: global: Timer #0 stopped at tick 7527586875. Duration: 14584375
7527600000: global: Number of accelerators running = 1
7539414375: system.acctest.elem_matrix0_dma: Transfer completed in 12.062 us
7539547500: global: Timer #0 started at tick 7539547500
7539641250: global: Timer #1 started at tick 7539641250
7539930000: global: Timer #1 stopped at tick 7539930000. Duration: 288750
7553610875: system.acctest.elem_matrix0_dma: SRC:0x0000000082018780, DST:0x0000000024010020, LEN:65536
7553840625: global: Timer #0 stopped at tick 7553840625. Duration: 14293125
7553855000: global: Number of accelerators running = 1
7565594875: system.acctest.elem_matrix0_dma: Transfer completed in 11.984 us
7565668125: global: Timer #0 started at tick 7565668125
7565758125: global: Timer #1 started at tick 7565758125
7565908750: global: Timer #1 stopped at tick 7565908750. Duration: 150625
7567576250: global: Timer #0 stopped at tick 7567576250. Duration: 1908125
7567590625: global: Number of accelerators running = 1
********************************************************************************
system.acctest.elem_matrix0.compute
   ========= Performance Analysis =============
   Setup Time:                      11.579481seconds
   Simulation Time:                 197.095417seconds
   System Clock:                    1.000000GHz
   Transistor Latency:              1ns
   Runtime:                         10932 cycles
   Runtime:                         10.932000 us
   Stalls:                          1 cycles
   Executed Nodes:                  10930 cycles

********************************************************************************
   ========= Performance Analysis =================
   Setup Time:                      11579481419.000000ns
   Simulation Time:                 197095417060.000000ns
   System Clock:                    1.000000GHz
   Transistor Latency:              0ns
   Runtime:                         10932 cycles
   Runtime:                         0.000001 seconds
   Stalls:                          1 cycles
       Load Only:                   0 cycles
       Store Only:                  1 cycles
       Compute Only:                0 cycles
       Compute & Store:             0 cycles
       Load & Store:                0 cycles
       Load & Compute:              0 cycles
       Load & Compute & Store:      0 cycles
   Executed Nodes:                  10930 cycles
       Load Only:                   0 cycles
       Store Only:                  4 cycles
       Compute Only:                1 cycles
       Compute & Store:             21 cycles
       Load & Store:                0 cycles
       Load & Compute:              6 cycles
       Load & Compute & Store:      10898 cycles

   ========= Runtime FU's ========= (Max | Avg) ===
   Counter FU's:                      32 | 0.046838
   Integer Add/Sub FU's:               0 | 0.000000
   Integer Mul/Div FU's:               0 | 0.000000
   Integer Shifter FU's:               0 | 0.000000
   Integer Bitwise FU's:               1 | 0.000091
   Floating Point Float Add/Sub:       0 | 0.000000
   Floating Point Double Add/Sub:      0 | 0.000000
   Floating Point Float Mul/Div:      34 | 0.044252
   Floating Point Double Mul/Div:      0 | 0.000000
   0 Cycle Compare FU's:             102 | 0.046945
   GEP Instruction FU's:              96 | 0.046835
   Type Conversion FU's:               7 | 0.006782

   ========= Static FU's ==========================
   Counter FU's:                    0
   Integer Add/Sub FU's:            0
   Integer Mul/Div FU's:            0
   Integer Shifter FU's:            0
   Integer Bitwise FU's:            0
   Floating Point Float Add/Sub:    0
   Floating Point Double Add/Sub:   0
   Floating Point Float Mul/Div:    0
   Floating Point Double Mul/Div:   0
   0 Cycle Compare FU's:            0
   GEP Instruction FU's:            0
   Type Conversion FU's:            0
   Other:                           0

   ========= Pipeline Register Usage =============
   Total Number of Registers:       5641
   Max Register Usage Per Cycle:    137
   Avg Register Usage Per Cycle:    12.130992
   Avg Register Size (Bytes):       5.980606

   ========= Memory Configuration =================
   Cache Bus Ports:                 0
   Shared Cache Size:               0kB
   Local Bus Ports:                 0
   Private SPM Size:                256kB
   Private Read Ports:              0
   Private Write Ports:             0
   Private Read Bus Width:          64
   Private Write Bus Width:         64
       Memory Reads:                0
       Memory Writes:               0
   ========= Power Analysis ======================
   FU Leakage Power:                0.045377 mW 
   FU Dynamic Power:                0.142576 mW 
   FU Total Power:                  0.187953 mW 

   Registers Leakage Power:          0.005281 mW 
   Registers Dynamic Power:          0.015326 mW 
       Register Reads (Bits):        132616
       Register Writes (Bits):       133658
   Registers Total Power:            0.020607 mW

   SPM Leakage Power:               0.104100 mW
   SPM Read Dynamic Power:          5.599688 mW
   SPM Write Dynamic Power:         4.937352 mW
   SPM Total Power:                 10.641140 mW

   Cache Leakage Power:             0.000000 mW
   Cache Read Dynamic Power:        0.000000 mW
   Cache Write Dynamic Power:       0.000000 mW
   Cache Total Power:               0.000000 mW

   Accelerator Power:               0.208559 mW
   Accelerator Power (SPM):         10.849700 mW
   Accelerator Power (Cache):       0.208559 mW

   ========= Area Analysis =======================
   FU Area:                         5472.068359 um^2 (0.005472 mm^2)
   Register Area:                   429.271088 um^2 (0.000429 mm^2)
   SPM Area:                        2177.365505 um^2 (0.002177 mm^2)
   Cache Area:                      0.000000 um^2 (0.000000 mm^2)

   Accelerator Area:                5901.339355 um^2 (0.005901 mm^2)
   Accelerator Area (SPM):          8078.704860 um^2 (0.008079 mm^2)
   Accelerator Area (Cache):        5901.339355 um^2 (0.005901 mm^2)

   ========= SPM Resizing  =======================
   SPM Optimized Leakage Power:     0.004248 mW
   SPM Opt Area:                    178.524902 um^2

7578354375: global: Timer #0 started at tick 7578354375
7578657500: global: Timer #2 started at tick 7578657500
7578900000: global: Timer #2 stopped at tick 7578900000. Duration: 242500
7592100875: system.acctest.elem_matrix0_dma: SRC:0x0000000024020020, DST:0x0000000082098780, LEN:65536
7592450000: global: Timer #0 stopped at tick 7592450000. Duration: 14095625
7592464375: global: Number of accelerators running = 1
7598454875: system.acctest.elem_matrix0_dma: Transfer completed in 6.354 us
7598528125: global: Timer #0 started at tick 7598528125
7598581875: global: Timer #1 started at tick 7598581875
7598733125: global: Timer #1 stopped at tick 7598733125. Duration: 151250
7599044375: global: DAG ID = 0
7599058125: global: Node ID = 1
7599077500: global: Node deadline difference = -2278
7599090000: global: Predicted memory time / byte = 0.000184998 us/byte
7599102500: global: Predicted memory time = 36.372 us
7599115000: global: Predicted memory time / byte = 9.65118e-05 us/byte
7599127500: global: Predicted memory time = 18.975 us
7599140000: global: Predicted memory time / byte = 0.000184418 us/byte
7599152500: global: Predicted memory time = 24 us
7599165000: global: Predicted memory time / byte = 9.68018e-05 us/byte
7599177500: global: Predicted memory time = 6 us
7612752375: system.acctest.elem_matrix0_dma: SRC:0x0000000082118780, DST:0x0000000024000020, LEN:65536
7612986875: global: Timer #0 stopped at tick 7612986875. Duration: 14458750
7613000000: global: Number of accelerators running = 1
7624800375: system.acctest.elem_matrix0_dma: Transfer completed in 12.048 us
7624916250: global: Timer #0 started at tick 7624916250
7624961875: global: Timer #1 started at tick 7624961875
7625241875: global: Timer #1 stopped at tick 7625241875. Duration: 280000
7638857375: system.acctest.elem_matrix0_dma: SRC:0x0000000082058780, DST:0x0000000024010020, LEN:65536
7639067500: global: Timer #0 stopped at tick 7639067500. Duration: 14151250
7639081875: global: Number of accelerators running = 1
7650849375: system.acctest.elem_matrix0_dma: Transfer completed in 11.992 us
7650922500: global: Timer #0 started at tick 7650922500
7651006875: global: Timer #1 started at tick 7651006875
7651148750: global: Timer #1 stopped at tick 7651148750. Duration: 141875
7652791250: global: Timer #0 stopped at tick 7652791250. Duration: 1868750
7652805625: global: Number of accelerators running = 1
********************************************************************************
system.acctest.elem_matrix0.compute
   ========= Performance Analysis =============
   Setup Time:                      10.585271seconds
   Simulation Time:                 192.163309seconds
   System Clock:                    1.000000GHz
   Transistor Latency:              1ns
   Runtime:                         10932 cycles
   Runtime:                         10.932000 us
   Stalls:                          1 cycles
   Executed Nodes:                  10930 cycles

********************************************************************************
   ========= Performance Analysis =================
   Setup Time:                      10585270831.000000ns
   Simulation Time:                 192163308767.000000ns
   System Clock:                    1.000000GHz
   Transistor Latency:              0ns
   Runtime:                         10932 cycles
   Runtime:                         0.000001 seconds
   Stalls:                          1 cycles
       Load Only:                   0 cycles
       Store Only:                  1 cycles
       Compute Only:                0 cycles
       Compute & Store:             0 cycles
       Load & Store:                0 cycles
       Load & Compute:              0 cycles
       Load & Compute & Store:      0 cycles
   Executed Nodes:                  10930 cycles
       Load Only:                   0 cycles
       Store Only:                  4 cycles
       Compute Only:                1 cycles
       Compute & Store:             21 cycles
       Load & Store:                0 cycles
       Load & Compute:              6 cycles
       Load & Compute & Store:      10898 cycles

   ========= Runtime FU's ========= (Max | Avg) ===
   Counter FU's:                      32 | 0.046838
   Integer Add/Sub FU's:               0 | 0.000000
   Integer Mul/Div FU's:               0 | 0.000000
   Integer Shifter FU's:               0 | 0.000000
   Integer Bitwise FU's:               1 | 0.000091
   Floating Point Float Add/Sub:       0 | 0.000000
   Floating Point Double Add/Sub:      0 | 0.000000
   Floating Point Float Mul/Div:      34 | 0.044252
   Floating Point Double Mul/Div:      0 | 0.000000
   0 Cycle Compare FU's:             102 | 0.046945
   GEP Instruction FU's:              96 | 0.046835
   Type Conversion FU's:               7 | 0.006782

   ========= Static FU's ==========================
   Counter FU's:                    0
   Integer Add/Sub FU's:            0
   Integer Mul/Div FU's:            0
   Integer Shifter FU's:            0
   Integer Bitwise FU's:            0
   Floating Point Float Add/Sub:    0
   Floating Point Double Add/Sub:   0
   Floating Point Float Mul/Div:    0
   Floating Point Double Mul/Div:   0
   0 Cycle Compare FU's:            0
   GEP Instruction FU's:            0
   Type Conversion FU's:            0
   Other:                           0

   ========= Pipeline Register Usage =============
   Total Number of Registers:       5641
   Max Register Usage Per Cycle:    137
   Avg Register Usage Per Cycle:    12.130992
   Avg Register Size (Bytes):       5.980606

   ========= Memory Configuration =================
   Cache Bus Ports:                 0
   Shared Cache Size:               0kB
   Local Bus Ports:                 0
   Private SPM Size:                256kB
   Private Read Ports:              0
   Private Write Ports:             0
   Private Read Bus Width:          64
   Private Write Bus Width:         64
       Memory Reads:                0
       Memory Writes:               0
   ========= Power Analysis ======================
   FU Leakage Power:                0.045377 mW 
   FU Dynamic Power:                0.142576 mW 
   FU Total Power:                  0.187953 mW 

   Registers Leakage Power:          0.005281 mW 
   Registers Dynamic Power:          0.015326 mW 
       Register Reads (Bits):        132616
       Register Writes (Bits):       133658
   Registers Total Power:            0.020607 mW

   SPM Leakage Power:               0.104100 mW
   SPM Read Dynamic Power:          6.009405 mW
   SPM Write Dynamic Power:         4.673423 mW
   SPM Total Power:                 10.786928 mW

   Cache Leakage Power:             0.000000 mW
   Cache Read Dynamic Power:        0.000000 mW
   Cache Write Dynamic Power:       0.000000 mW
   Cache Total Power:               0.000000 mW

   Accelerator Power:               0.208559 mW
   Accelerator Power (SPM):         10.995488 mW
   Accelerator Power (Cache):       0.208559 mW

   ========= Area Analysis =======================
   FU Area:                         5472.068359 um^2 (0.005472 mm^2)
   Register Area:                   429.271088 um^2 (0.000429 mm^2)
   SPM Area:                        2177.365505 um^2 (0.002177 mm^2)
   Cache Area:                      0.000000 um^2 (0.000000 mm^2)

   Accelerator Area:                5901.339355 um^2 (0.005901 mm^2)
   Accelerator Area (SPM):          8078.704860 um^2 (0.008079 mm^2)
   Accelerator Area (Cache):        5901.339355 um^2 (0.005901 mm^2)

   ========= SPM Resizing  =======================
   SPM Optimized Leakage Power:     0.004248 mW
   SPM Opt Area:                    178.524902 um^2

7663569375: global: Timer #0 started at tick 7663569375
7663810000: global: Timer #2 started at tick 7663810000
7664091875: global: Timer #2 stopped at tick 7664091875. Duration: 281875
7677273750: system.acctest.elem_matrix0_dma: SRC:0x0000000024020020, DST:0x0000000082128780, LEN:65536
7677619375: global: Timer #0 stopped at tick 7677619375. Duration: 14050000
7677633750: global: Number of accelerators running = 1
7683611750: system.acctest.elem_matrix0_dma: Transfer completed in 6.338 us
7683685625: global: Timer #0 started at tick 7683685625
7683785625: global: Timer #1 started at tick 7683785625
7683927500: global: Timer #1 stopped at tick 7683927500. Duration: 141875
7684237500: global: DAG ID = 0
7684251250: global: Node ID = 10
7684270625: global: Node deadline difference = -2193
7684283125: global: Predicted memory time / byte = 0.00018251 us/byte
7684295625: global: Predicted memory time = 35.883 us
7684308125: global: Predicted memory time / byte = 9.68018e-05 us/byte
7684320625: global: Predicted memory time = 19.032 us
7684333125: global: Predicted memory time / byte = 0.000183876 us/byte
7684345625: global: Predicted memory time = 24 us
7684358125: global: Predicted memory time / byte = 9.73358e-05 us/byte
7684370625: global: Predicted memory time = 6 us
7697928750: system.acctest.elem_matrix0_dma: SRC:0x0000000082098780, DST:0x0000000024000020, LEN:65536
7698128125: global: Timer #0 stopped at tick 7698128125. Duration: 14442500
7698141250: global: Number of accelerators running = 1
7710133750: system.acctest.elem_matrix0_dma: Transfer completed in 12.205 us
7710249375: global: Timer #0 started at tick 7710249375
7710288750: global: Timer #1 started at tick 7710288750
7710557500: global: Timer #1 stopped at tick 7710557500. Duration: 268750
7724167375: system.acctest.elem_matrix0_dma: SRC:0x0000000082028780, DST:0x0000000024010020, LEN:65536
7724377500: global: Timer #0 stopped at tick 7724377500. Duration: 14128125
7724391875: global: Number of accelerators running = 1
7736141375: system.acctest.elem_matrix0_dma: Transfer completed in 11.974 us
7736215625: global: Timer #0 started at tick 7736215625
7736300000: global: Timer #1 started at tick 7736300000
7736441875: global: Timer #1 stopped at tick 7736441875. Duration: 141875
7738064375: global: Timer #0 stopped at tick 7738064375. Duration: 1848750
7738078750: global: Number of accelerators running = 1
********************************************************************************
system.acctest.elem_matrix0.compute
   ========= Performance Analysis =============
   Setup Time:                      9.908632seconds
   Simulation Time:                 183.929527seconds
   System Clock:                    1.000000GHz
   Transistor Latency:              1ns
   Runtime:                         10932 cycles
   Runtime:                         10.932000 us
   Stalls:                          0 cycles
   Executed Nodes:                  10931 cycles

********************************************************************************
   ========= Performance Analysis =================
   Setup Time:                      9908632168.000000ns
   Simulation Time:                 183929526624.000000ns
   System Clock:                    1.000000GHz
   Transistor Latency:              0ns
   Runtime:                         10932 cycles
   Runtime:                         0.000001 seconds
   Stalls:                          0 cycles
       Load Only:                   0 cycles
       Store Only:                  0 cycles
       Compute Only:                0 cycles
       Compute & Store:             0 cycles
       Load & Store:                0 cycles
       Load & Compute:              0 cycles
       Load & Compute & Store:      0 cycles
   Executed Nodes:                  10931 cycles
       Load Only:                   0 cycles
       Store Only:                  5 cycles
       Compute Only:                1 cycles
       Compute & Store:             21 cycles
       Load & Store:                0 cycles
       Load & Compute:              7 cycles
       Load & Compute & Store:      10897 cycles

   ========= Runtime FU's ========= (Max | Avg) ===
   Counter FU's:                      32 | 0.046838
   Integer Add/Sub FU's:               0 | 0.000000
   Integer Mul/Div FU's:               0 | 0.000000
   Integer Shifter FU's:               0 | 0.000000
   Integer Bitwise FU's:               1 | 0.000091
   Floating Point Float Add/Sub:      34 | 0.044252
   Floating Point Double Add/Sub:      0 | 0.000000
   Floating Point Float Mul/Div:       0 | 0.000000
   Floating Point Double Mul/Div:      0 | 0.000000
   0 Cycle Compare FU's:             102 | 0.046974
   GEP Instruction FU's:              96 | 0.046835
   Type Conversion FU's:               7 | 0.006782

   ========= Static FU's ==========================
   Counter FU's:                    0
   Integer Add/Sub FU's:            0
   Integer Mul/Div FU's:            0
   Integer Shifter FU's:            0
   Integer Bitwise FU's:            0
   Floating Point Float Add/Sub:    0
   Floating Point Double Add/Sub:   0
   Floating Point Float Mul/Div:    0
   Floating Point Double Mul/Div:   0
   0 Cycle Compare FU's:            0
   GEP Instruction FU's:            0
   Type Conversion FU's:            0
   Other:                           0

   ========= Pipeline Register Usage =============
   Total Number of Registers:       5641
   Max Register Usage Per Cycle:    138
   Avg Register Usage Per Cycle:    12.130992
   Avg Register Size (Bytes):       5.980606

   ========= Memory Configuration =================
   Cache Bus Ports:                 0
   Shared Cache Size:               0kB
   Local Bus Ports:                 0
   Private SPM Size:                256kB
   Private Read Ports:              0
   Private Write Ports:             0
   Private Read Bus Width:          64
   Private Write Bus Width:         64
       Memory Reads:                0
       Memory Writes:               0
   ========= Power Analysis ======================
   FU Leakage Power:                0.519269 mW 
   FU Dynamic Power:                0.154621 mW 
   FU Total Power:                  0.673890 mW 

   Registers Leakage Power:          0.005281 mW 
   Registers Dynamic Power:          0.015326 mW 
       Register Reads (Bits):        132616
       Register Writes (Bits):       133658
   Registers Total Power:            0.020607 mW

   SPM Leakage Power:               0.104100 mW
   SPM Read Dynamic Power:          7.109320 mW
   SPM Write Dynamic Power:         4.890273 mW
   SPM Total Power:                 12.103693 mW

   Cache Leakage Power:             0.000000 mW
   Cache Read Dynamic Power:        0.000000 mW
   Cache Write Dynamic Power:       0.000000 mW
   Cache Total Power:               0.000000 mW

   Accelerator Power:               0.694497 mW
   Accelerator Power (SPM):         12.798190 mW
   Accelerator Power (Cache):       0.694497 mW

   ========= Area Analysis =======================
   FU Area:                         70212.562500 um^2 (0.070213 mm^2)
   Register Area:                   429.271088 um^2 (0.000429 mm^2)
   SPM Area:                        2177.365505 um^2 (0.002177 mm^2)
   Cache Area:                      0.000000 um^2 (0.000000 mm^2)

   Accelerator Area:                70641.835938 um^2 (0.070642 mm^2)
   Accelerator Area (SPM):          72819.201442 um^2 (0.072819 mm^2)
   Accelerator Area (Cache):        70641.835938 um^2 (0.070642 mm^2)

   ========= SPM Resizing  =======================
   SPM Optimized Leakage Power:     0.004248 mW
   SPM Opt Area:                    178.524902 um^2

7748849375: global: Timer #0 started at tick 7748849375
7749088125: global: Timer #2 started at tick 7749088125
7749350625: global: Timer #2 stopped at tick 7749350625. Duration: 262500
7762515875: system.acctest.elem_matrix0_dma: SRC:0x0000000024020020, DST:0x00000000820a8780, LEN:65536
7762861875: global: Timer #0 stopped at tick 7762861875. Duration: 14012500
7762876250: global: Number of accelerators running = 1
7768863875: system.acctest.elem_matrix0_dma: Transfer completed in 6.348 us
7768937500: global: Timer #0 started at tick 7768937500
7768986875: global: Timer #1 started at tick 7768986875
7769128750: global: Timer #1 stopped at tick 7769128750. Duration: 141875
7769440625: global: DAG ID = 0
7769454375: global: Node ID = 2
7769473750: global: Node deadline difference = -2165
7769486250: global: Predicted memory time / byte = 0.000183319 us/byte
7769498750: global: Predicted memory time = 36.042 us
7769511250: global: Predicted memory time / byte = 9.73358e-05 us/byte
7769523750: global: Predicted memory time = 19.137 us
7769536250: global: Predicted memory time / byte = 0.000184944 us/byte
7769548750: global: Predicted memory time = 24 us
7769561250: global: Predicted memory time / byte = 9.67102e-05 us/byte
7769573750: global: Predicted memory time = 6 us
7783130875: system.acctest.elem_matrix0_dma: SRC:0x0000000082128780, DST:0x0000000024000020, LEN:65536
7783373750: global: Timer #0 stopped at tick 7783373750. Duration: 14436250
7783388125: global: Number of accelerators running = 1
7795095875: system.acctest.elem_matrix0_dma: Transfer completed in 11.965 us
7795211250: global: Timer #0 started at tick 7795211250
7795250625: global: Timer #1 started at tick 7795250625
7795521875: global: Timer #1 stopped at tick 7795521875. Duration: 271250
7809110875: system.acctest.elem_matrix0_dma: SRC:0x0000000082068780, DST:0x0000000024010020, LEN:65536
7809333750: global: Timer #0 stopped at tick 7809333750. Duration: 14122500
7809348125: global: Number of accelerators running = 1
7821084875: system.acctest.elem_matrix0_dma: Transfer completed in 11.974 us
7821158125: global: Timer #0 started at tick 7821158125
7821241875: global: Timer #1 started at tick 7821241875
7821383750: global: Timer #1 stopped at tick 7821383750. Duration: 141875
7823005000: global: Timer #0 stopped at tick 7823005000. Duration: 1846875
7823019375: global: Number of accelerators running = 1
********************************************************************************
system.acctest.elem_matrix0.compute
   ========= Performance Analysis =============
   Setup Time:                      9.225395seconds
   Simulation Time:                 174.911940seconds
   System Clock:                    1.000000GHz
   Transistor Latency:              1ns
   Runtime:                         10932 cycles
   Runtime:                         10.932000 us
   Stalls:                          0 cycles
   Executed Nodes:                  10931 cycles

********************************************************************************
   ========= Performance Analysis =================
   Setup Time:                      9225395240.000000ns
   Simulation Time:                 174911939569.000000ns
   System Clock:                    1.000000GHz
   Transistor Latency:              0ns
   Runtime:                         10932 cycles
   Runtime:                         0.000001 seconds
   Stalls:                          0 cycles
       Load Only:                   0 cycles
       Store Only:                  0 cycles
       Compute Only:                0 cycles
       Compute & Store:             0 cycles
       Load & Store:                0 cycles
       Load & Compute:              0 cycles
       Load & Compute & Store:      0 cycles
   Executed Nodes:                  10931 cycles
       Load Only:                   0 cycles
       Store Only:                  5 cycles
       Compute Only:                1 cycles
       Compute & Store:             21 cycles
       Load & Store:                0 cycles
       Load & Compute:              7 cycles
       Load & Compute & Store:      10897 cycles

   ========= Runtime FU's ========= (Max | Avg) ===
   Counter FU's:                      32 | 0.046838
   Integer Add/Sub FU's:               0 | 0.000000
   Integer Mul/Div FU's:               0 | 0.000000
   Integer Shifter FU's:               0 | 0.000000
   Integer Bitwise FU's:               1 | 0.000091
   Floating Point Float Add/Sub:      34 | 0.044252
   Floating Point Double Add/Sub:      0 | 0.000000
   Floating Point Float Mul/Div:       0 | 0.000000
   Floating Point Double Mul/Div:      0 | 0.000000
   0 Cycle Compare FU's:             102 | 0.046974
   GEP Instruction FU's:              96 | 0.046835
   Type Conversion FU's:               7 | 0.006782

   ========= Static FU's ==========================
   Counter FU's:                    0
   Integer Add/Sub FU's:            0
   Integer Mul/Div FU's:            0
   Integer Shifter FU's:            0
   Integer Bitwise FU's:            0
   Floating Point Float Add/Sub:    0
   Floating Point Double Add/Sub:   0
   Floating Point Float Mul/Div:    0
   Floating Point Double Mul/Div:   0
   0 Cycle Compare FU's:            0
   GEP Instruction FU's:            0
   Type Conversion FU's:            0
   Other:                           0

   ========= Pipeline Register Usage =============
   Total Number of Registers:       5641
   Max Register Usage Per Cycle:    138
   Avg Register Usage Per Cycle:    12.130992
   Avg Register Size (Bytes):       5.980606

   ========= Memory Configuration =================
   Cache Bus Ports:                 0
   Shared Cache Size:               0kB
   Local Bus Ports:                 0
   Private SPM Size:                256kB
   Private Read Ports:              0
   Private Write Ports:             0
   Private Read Bus Width:          64
   Private Write Bus Width:         64
       Memory Reads:                0
       Memory Writes:               0
   ========= Power Analysis ======================
   FU Leakage Power:                0.519269 mW 
   FU Dynamic Power:                0.154621 mW 
   FU Total Power:                  0.673890 mW 

   Registers Leakage Power:          0.005281 mW 
   Registers Dynamic Power:          0.015326 mW 
       Register Reads (Bits):        132616
       Register Writes (Bits):       133658
   Registers Total Power:            0.020607 mW

   SPM Leakage Power:               0.104100 mW
   SPM Read Dynamic Power:          7.503291 mW
   SPM Write Dynamic Power:         5.103456 mW
   SPM Total Power:                 12.710848 mW

   Cache Leakage Power:             0.000000 mW
   Cache Read Dynamic Power:        0.000000 mW
   Cache Write Dynamic Power:       0.000000 mW
   Cache Total Power:               0.000000 mW

   Accelerator Power:               0.694497 mW
   Accelerator Power (SPM):         13.405344 mW
   Accelerator Power (Cache):       0.694497 mW

   ========= Area Analysis =======================
   FU Area:                         70212.562500 um^2 (0.070213 mm^2)
   Register Area:                   429.271088 um^2 (0.000429 mm^2)
   SPM Area:                        2177.365505 um^2 (0.002177 mm^2)
   Cache Area:                      0.000000 um^2 (0.000000 mm^2)

   Accelerator Area:                70641.835938 um^2 (0.070642 mm^2)
   Accelerator Area (SPM):          72819.201442 um^2 (0.072819 mm^2)
   Accelerator Area (Cache):        70641.835938 um^2 (0.070642 mm^2)

   ========= SPM Resizing  =======================
   SPM Optimized Leakage Power:     0.004248 mW
   SPM Opt Area:                    178.524902 um^2

7833796250: global: Timer #0 started at tick 7833796250
7834165000: global: Timer #2 started at tick 7834165000
7834383125: global: Timer #2 stopped at tick 7834383125. Duration: 218125
7847550875: system.acctest.elem_matrix0_dma: SRC:0x0000000024020020, DST:0x0000000082138780, LEN:65536
7847896875: global: Timer #0 stopped at tick 7847896875. Duration: 14100625
7847911250: global: Number of accelerators running = 1
7853908875: system.acctest.elem_matrix0_dma: Transfer completed in 6.358 us
7853982500: global: Timer #0 started at tick 7853982500
7854031875: global: Timer #1 started at tick 7854031875
7854173750: global: Timer #1 stopped at tick 7854173750. Duration: 141875
7854485625: global: DAG ID = 0
7854499375: global: Node ID = 11
7854518750: global: Node deadline difference = -2080
7854531250: global: Predicted memory time / byte = 0.000183456 us/byte
7854543750: global: Predicted memory time = 36.069 us
7854556250: global: Predicted memory time / byte = 9.67102e-05 us/byte
7854568750: global: Predicted memory time = 19.014 us
7854581250: global: Predicted memory time / byte = 0.000183083 us/byte
7854593750: global: Predicted memory time = 23 us
7854606250: global: Predicted memory time / byte = 9.68628e-05 us/byte
7854618750: global: Predicted memory time = 6 us
7868192375: system.acctest.elem_matrix0_dma: SRC:0x00000000820a8780, DST:0x0000000024000020, LEN:65536
7868425000: global: Timer #0 stopped at tick 7868425000. Duration: 14442500
7868438125: global: Number of accelerators running = 1
7880189375: system.acctest.elem_matrix0_dma: Transfer completed in 11.997 us
7880305625: global: Timer #0 started at tick 7880305625
7880345000: global: Timer #1 started at tick 7880345000
7880616875: global: Timer #1 stopped at tick 7880616875. Duration: 271875
7882253750: global: Timer #0 stopped at tick 7882253750. Duration: 1948125
7882268125: global: Number of accelerators running = 1
********************************************************************************
system.acctest.elem_matrix0.compute
   ========= Performance Analysis =============
   Setup Time:                      8.366498seconds
   Simulation Time:                 139.788888seconds
   System Clock:                    1.000000GHz
   Transistor Latency:              1ns
   Runtime:                         8316 cycles
   Runtime:                         8.316000 us
   Stalls:                          82 cycles
   Executed Nodes:                  8233 cycles

********************************************************************************
   ========= Performance Analysis =================
   Setup Time:                      8366498434.000000ns
   Simulation Time:                 139788887838.000000ns
   System Clock:                    1.000000GHz
   Transistor Latency:              0ns
   Runtime:                         8316 cycles
   Runtime:                         0.000001 seconds
   Stalls:                          82 cycles
       Load Only:                   0 cycles
       Store Only:                  77 cycles
       Compute Only:                0 cycles
       Compute & Store:             5 cycles
       Load & Store:                0 cycles
       Load & Compute:              0 cycles
       Load & Compute & Store:      0 cycles
   Executed Nodes:                  8233 cycles
       Load Only:                   0 cycles
       Store Only:                  11 cycles
       Compute Only:                1827 cycles
       Compute & Store:             3453 cycles
       Load & Store:                0 cycles
       Load & Compute:              774 cycles
       Load & Compute & Store:      2168 cycles

   ========= Runtime FU's ========= (Max | Avg) ===
   Counter FU's:                      32 | 0.061572
   Integer Add/Sub FU's:               0 | 0.000000
   Integer Mul/Div FU's:               0 | 0.000000
   Integer Shifter FU's:               0 | 0.000000
   Integer Bitwise FU's:               1 | 0.000120
   Floating Point Float Add/Sub:      80 | 0.302014
   Floating Point Double Add/Sub:      0 | 0.000000
   Floating Point Float Mul/Div:      35 | 0.056511
   Floating Point Double Mul/Div:      0 | 0.000000
   0 Cycle Compare FU's:              15 | 0.024828
   GEP Instruction FU's:              64 | 0.061568
   Type Conversion FU's:              66 | 0.120964

   ========= Static FU's ==========================
   Counter FU's:                    0
   Integer Add/Sub FU's:            0
   Integer Mul/Div FU's:            0
   Integer Shifter FU's:            0
   Integer Bitwise FU's:            0
   Floating Point Float Add/Sub:    0
   Floating Point Double Add/Sub:   0
   Floating Point Float Mul/Div:    0
   Floating Point Double Mul/Div:   0
   0 Cycle Compare FU's:            0
   GEP Instruction FU's:            0
   Type Conversion FU's:            0
   Other:                           0

   ========= Pipeline Register Usage =============
   Total Number of Registers:       5641
   Max Register Usage Per Cycle:    126
   Avg Register Usage Per Cycle:    27.706590
   Avg Register Size (Bytes):       5.993295

   ========= Memory Configuration =================
   Cache Bus Ports:                 0
   Shared Cache Size:               0kB
   Local Bus Ports:                 0
   Private SPM Size:                256kB
   Private Read Ports:              0
   Private Write Ports:             0
   Private Read Bus Width:          64
   Private Write Bus Width:         64
       Memory Reads:                0
       Memory Writes:               0
   ========= Power Analysis ======================
   FU Leakage Power:                1.265749 mW 
   FU Dynamic Power:                1.166708 mW 
   FU Total Power:                  2.432457 mW 

   Registers Leakage Power:          0.011908 mW 
   Registers Dynamic Power:          0.045645 mW 
       Register Reads (Bits):        230408
       Register Writes (Bits):       231961
   Registers Total Power:            0.057553 mW

   SPM Leakage Power:               0.104100 mW
   SPM Read Dynamic Power:          7.187986 mW
   SPM Write Dynamic Power:         5.320358 mW
   SPM Total Power:                 12.612445 mW

   Cache Leakage Power:             0.000000 mW
   Cache Read Dynamic Power:        0.000000 mW
   Cache Write Dynamic Power:       0.000000 mW
   Cache Total Power:               0.000000 mW

   Accelerator Power:               2.490010 mW
   Accelerator Power (SPM):         15.102455 mW
   Accelerator Power (Cache):       2.490010 mW

   ========= Area Analysis =======================
   FU Area:                         170559.593750 um^2 (0.170560 mm^2)
   Register Area:                   967.909180 um^2 (0.000968 mm^2)
   SPM Area:                        2177.365505 um^2 (0.002177 mm^2)
   Cache Area:                      0.000000 um^2 (0.000000 mm^2)

   Accelerator Area:                171527.500000 um^2 (0.171527 mm^2)
   Accelerator Area (SPM):          173704.865505 um^2 (0.173705 mm^2)
   Accelerator Area (Cache):        171527.500000 um^2 (0.171527 mm^2)

   ========= SPM Resizing  =======================
   SPM Optimized Leakage Power:     0.003887 mW
   SPM Opt Area:                    172.850411 um^2

7890417500: global: Timer #0 started at tick 7890417500
7890768125: global: Timer #2 started at tick 7890768125
7890970000: global: Timer #2 stopped at tick 7890970000. Duration: 201875
7904273750: system.acctest.elem_matrix0_dma: SRC:0x0000000024010020, DST:0x00000000820b8780, LEN:65536
7904619375: global: Timer #0 stopped at tick 7904619375. Duration: 14201875
7904633750: global: Number of accelerators running = 1
7910566750: system.acctest.elem_matrix0_dma: Transfer completed in 6.293 us
7910640625: global: Timer #0 started at tick 7910640625
7910690000: global: Timer #1 started at tick 7910690000
7910840000: global: Timer #1 stopped at tick 7910840000. Duration: 150000
7911159375: global: DAG ID = 0
7911173125: global: Node ID = 3
[...]
   Counter FU's:                    0
   Integer Add/Sub FU's:            0
   Integer Mul/Div FU's:            0
   Integer Shifter FU's:            0
   Integer Bitwise FU's:            0
   Floating Point Float Add/Sub:    0
   Floating Point Double Add/Sub:   0
   Floating Point Float Mul/Div:    0
   Floating Point Double Mul/Div:   0
   0 Cycle Compare FU's:            0
   GEP Instruction FU's:            0
   Type Conversion FU's:            0
   Other:                           0

   ========= Pipeline Register Usage =============
   Total Number of Registers:       5641
   Max Register Usage Per Cycle:    131
   Avg Register Usage Per Cycle:    31.540748
   Avg Register Size (Bytes):       5.745110

   ========= Memory Configuration =================
   Cache Bus Ports:                 0
   Shared Cache Size:               0kB
   Local Bus Ports:                 0
   Private SPM Size:                256kB
   Private Read Ports:              0
   Private Write Ports:             0
   Private Read Bus Width:          64
   Private Write Bus Width:         64
       Memory Reads:                0
       Memory Writes:               0
   ========= Power Analysis ======================
   FU Leakage Power:                1.204730 mW 
   FU Dynamic Power:                1.740443 mW 
   FU Total Power:                  2.945173 mW 

   Registers Leakage Power:          0.013106 mW 
   Registers Dynamic Power:          0.057551 mW 
       Register Reads (Bits):        263176
       Register Writes (Bits):       264729
   Registers Total Power:            0.070657 mW

   SPM Leakage Power:               0.104100 mW
   SPM Read Dynamic Power:          34.111005 mW
   SPM Write Dynamic Power:         25.472776 mW
   SPM Total Power:                 59.687881 mW

   Cache Leakage Power:             0.000000 mW
   Cache Read Dynamic Power:        0.000000 mW
   Cache Write Dynamic Power:       0.000000 mW
   Cache Total Power:               0.000000 mW

   Accelerator Power:               3.015830 mW
   Accelerator Power (SPM):         62.703711 mW
   Accelerator Power (Cache):       3.015830 mW

   ========= Area Analysis =======================
   FU Area:                         162305.218750 um^2 (0.162305 mm^2)
   Register Area:                   1065.283691 um^2 (0.001065 mm^2)
   SPM Area:                        2177.365505 um^2 (0.002177 mm^2)
   Cache Area:                      0.000000 um^2 (0.000000 mm^2)

   Accelerator Area:                163370.500000 um^2 (0.163371 mm^2)
   Accelerator Area (SPM):          165547.865505 um^2 (0.165548 mm^2)
   Accelerator Area (Cache):        163370.500000 um^2 (0.163371 mm^2)

   ========= SPM Resizing  =======================
   SPM Optimized Leakage Power:     0.004070 mW
   SPM Opt Area:                    175.836670 um^2

26921890625: global: Timer #0 started at tick 26921890625
26922128750: global: Timer #2 started at tick 26922128750
26922310625: global: Timer #2 stopped at tick 26922310625. Duration: 181875
26935472375: system.acctest.elem_matrix0_dma: SRC:0x0000000024010020, DST:0x000000008329dec0, LEN:65536
26935818750: global: Timer #0 stopped at tick 26935818750. Duration: 13928125
26935833125: global: Number of accelerators running = 1
26941805375: system.acctest.elem_matrix0_dma: Transfer completed in 6.333 us
26941878125: global: Timer #0 started at tick 26941878125
26941918125: global: Timer #1 started at tick 26941918125
26942060000: global: Timer #1 stopped at tick 26942060000. Duration: 141875
26942371250: global: DAG ID = 1
26942385000: global: Node ID = 142
26942404375: global: Node deadline difference = 12770
26942416875: global: Predicted memory time / byte = 0.000182922 us/byte
26942429375: global: Predicted memory time = 23.976 us
26942441875: global: Predicted memory time / byte = 9.56116e-05 us/byte
26942454375: global: Predicted memory time = 18.798 us
26942466875: global: Predicted memory time / byte = 0.000182877 us/byte
26942479375: global: Predicted memory time = 11 us
26942491875: global: Predicted memory time / byte = 9.63135e-05 us/byte
26942504375: global: Predicted memory time = 6 us
26956062375: system.acctest.elem_matrix0_dma: SRC:0x00000000827e1a80, DST:0x0000000024000020, LEN:65536
26956295000: global: Timer #0 stopped at tick 26956295000. Duration: 14416875
26956308125: global: Number of accelerators running = 1
26968035375: system.acctest.elem_matrix0_dma: Transfer completed in 11.973 us
26968151250: global: Timer #0 started at tick 26968151250
26968186250: global: Timer #1 started at tick 26968186250
26968456875: global: Timer #1 stopped at tick 26968456875. Duration: 270625
26982050875: system.acctest.elem_matrix0_dma: SRC:0x0000000082871a80, DST:0x0000000024010020, LEN:65536
26982260625: global: Timer #0 stopped at tick 26982260625. Duration: 14109375
26982275000: global: Number of accelerators running = 1
26994013875: system.acctest.elem_matrix0_dma: Transfer completed in 11.963 us
26994087500: global: Timer #0 started at tick 26994087500
26994166250: global: Timer #1 started at tick 26994166250
26994308125: global: Timer #1 stopped at tick 26994308125. Duration: 141875
26995893125: global: Timer #0 stopped at tick 26995893125. Duration: 1805625
26995907500: global: Number of accelerators running = 1
********************************************************************************
system.acctest.elem_matrix0.compute
   ========= Performance Analysis =============
   Setup Time:                      5.586642seconds
   Simulation Time:                 83.895420seconds
   System Clock:                    1.000000GHz
   Transistor Latency:              1ns
   Runtime:                         10932 cycles
   Runtime:                         10.932000 us
   Stalls:                          0 cycles
   Executed Nodes:                  10931 cycles

********************************************************************************
   ========= Performance Analysis =================
   Setup Time:                      5586641590.000000ns
   Simulation Time:                 83895420153.000000ns
   System Clock:                    1.000000GHz
   Transistor Latency:              0ns
   Runtime:                         10932 cycles
   Runtime:                         0.000001 seconds
   Stalls:                          0 cycles
       Load Only:                   0 cycles
       Store Only:                  0 cycles
       Compute Only:                0 cycles
       Compute & Store:             0 cycles
       Load & Store:                0 cycles
       Load & Compute:              0 cycles
       Load & Compute & Store:      0 cycles
   Executed Nodes:                  10931 cycles
       Load Only:                   0 cycles
       Store Only:                  5 cycles
       Compute Only:                1 cycles
       Compute & Store:             21 cycles
       Load & Store:                0 cycles
       Load & Compute:              7 cycles
       Load & Compute & Store:      10897 cycles

   ========= Runtime FU's ========= (Max | Avg) ===
   Counter FU's:                      32 | 0.046838
   Integer Add/Sub FU's:               0 | 0.000000
   Integer Mul/Div FU's:               0 | 0.000000
   Integer Shifter FU's:               0 | 0.000000
   Integer Bitwise FU's:               1 | 0.000091
   Floating Point Float Add/Sub:      34 | 0.044252
   Floating Point Double Add/Sub:      0 | 0.000000
   Floating Point Float Mul/Div:       0 | 0.000000
   Floating Point Double Mul/Div:      0 | 0.000000
   0 Cycle Compare FU's:             102 | 0.046974
   GEP Instruction FU's:              96 | 0.046835
   Type Conversion FU's:               7 | 0.006782

   ========= Static FU's ==========================
   Counter FU's:                    0
   Integer Add/Sub FU's:            0
   Integer Mul/Div FU's:            0
   Integer Shifter FU's:            0
   Integer Bitwise FU's:            0
   Floating Point Float Add/Sub:    0
   Floating Point Double Add/Sub:   0
   Floating Point Float Mul/Div:    0
   Floating Point Double Mul/Div:   0
   0 Cycle Compare FU's:            0
   GEP Instruction FU's:            0
   Type Conversion FU's:            0
   Other:                           0

   ========= Pipeline Register Usage =============
   Total Number of Registers:       5641
   Max Register Usage Per Cycle:    138
   Avg Register Usage Per Cycle:    12.130992
   Avg Register Size (Bytes):       5.980606

   ========= Memory Configuration =================
   Cache Bus Ports:                 0
   Shared Cache Size:               0kB
   Local Bus Ports:                 0
   Private SPM Size:                256kB
   Private Read Ports:              0
   Private Write Ports:             0
   Private Read Bus Width:          64
   Private Write Bus Width:         64
       Memory Reads:                0
       Memory Writes:               0
   ========= Power Analysis ======================
   FU Leakage Power:                0.519269 mW 
   FU Dynamic Power:                0.154621 mW 
   FU Total Power:                  0.673890 mW 

   Registers Leakage Power:          0.005281 mW 
   Registers Dynamic Power:          0.015326 mW 
       Register Reads (Bits):        132616
       Register Writes (Bits):       133658
   Registers Total Power:            0.020607 mW

   SPM Leakage Power:               0.104100 mW
   SPM Read Dynamic Power:          34.161063 mW
   SPM Write Dynamic Power:         25.524369 mW
   SPM Total Power:                 59.789533 mW

   Cache Leakage Power:             0.000000 mW
   Cache Read Dynamic Power:        0.000000 mW
   Cache Write Dynamic Power:       0.000000 mW
   Cache Total Power:               0.000000 mW

   Accelerator Power:               0.694497 mW
   Accelerator Power (SPM):         60.484030 mW
   Accelerator Power (Cache):       0.694497 mW

   ========= Area Analysis =======================
   FU Area:                         70212.562500 um^2 (0.070213 mm^2)
   Register Area:                   429.271088 um^2 (0.000429 mm^2)
   SPM Area:                        2177.365505 um^2 (0.002177 mm^2)
   Cache Area:                      0.000000 um^2 (0.000000 mm^2)

   Accelerator Area:                70641.835938 um^2 (0.070642 mm^2)
   Accelerator Area (SPM):          72819.201442 um^2 (0.072819 mm^2)
   Accelerator Area (Cache):        70641.835938 um^2 (0.070642 mm^2)

   ========= SPM Resizing  =======================
   SPM Optimized Leakage Power:     0.004248 mW
   SPM Opt Area:                    178.524902 um^2

27006699375: global: Timer #0 started at tick 27006699375
27020024500: system.acctest.elem_matrix0_dma: SRC:0x0000000024020020, DST:0x0000000082881a80, LEN:65536
27020370625: global: Timer #0 stopped at tick 27020370625. Duration: 13671250
27020385000: global: Number of accelerators running = 1
27026310500: system.acctest.elem_matrix0_dma: Transfer completed in 6.286 us
27026390000: global: Timer #0 started at tick 27026390000
27026441875: global: Timer #1 started at tick 27026441875
27026591875: global: Timer #1 stopped at tick 27026591875. Duration: 150000
27026911250: global: DAG ID = 0
27026925000: global: Node ID = 119
27026955625: global: DAG execution time = 19795
27026973750: global: DAG deadline difference = 12795
27026991875: global: Node deadline difference = 12795
27027004375: global: Predicted memory time / byte = 0.000183701 us/byte
27027016875: global: Predicted memory time = 36.117 us
27027029375: global: Predicted memory time / byte = 9.63135e-05 us/byte
27027041875: global: Predicted memory time = 18.936 us
27027054375: global: Predicted memory time / byte = 0.000183014 us/byte
27027066875: global: Predicted memory time = 22 us
27027079375: global: Predicted memory time / byte = 9.5871e-05 us/byte
27027091875: global: Predicted memory time = 6 us
27040628750: system.acctest.elem_matrix0_dma: SRC:0x000000008329dec0, DST:0x0000000024000020, LEN:65536
27040883125: global: Timer #0 stopped at tick 27040883125. Duration: 14493125
27040897500: global: Number of accelerators running = 1
27052590750: system.acctest.elem_matrix0_dma: Transfer completed in 11.962 us
27052706250: global: Timer #0 started at tick 27052706250
27052745625: global: Timer #1 started at tick 27052745625
27053016875: global: Timer #1 stopped at tick 27053016875. Duration: 271250
27066596625: system.acctest.elem_matrix0_dma: SRC:0x000000008328dec0, DST:0x0000000024010020, LEN:65536
27066814375: global: Timer #0 stopped at tick 27066814375. Duration: 14108125
27066828750: global: Number of accelerators running = 1
27078576625: system.acctest.elem_matrix0_dma: Transfer completed in 11.98 us
27078650625: global: Timer #0 started at tick 27078650625
27078729375: global: Timer #1 started at tick 27078729375
27078871250: global: Timer #1 stopped at tick 27078871250. Duration: 141875
27080478750: global: Timer #0 stopped at tick 27080478750. Duration: 1828125
27080493125: global: Number of accelerators running = 1
********************************************************************************
system.acctest.elem_matrix0.compute
   ========= Performance Analysis =============
   Setup Time:                      5.804642seconds
   Simulation Time:                 78.594037seconds
   System Clock:                    1.000000GHz
   Transistor Latency:              1ns
   Runtime:                         10932 cycles
   Runtime:                         10.932000 us
   Stalls:                          1 cycles
   Executed Nodes:                  10930 cycles

********************************************************************************
   ========= Performance Analysis =================
   Setup Time:                      5804641971.000000ns
   Simulation Time:                 78594037264.000000ns
   System Clock:                    1.000000GHz
   Transistor Latency:              0ns
   Runtime:                         10932 cycles
   Runtime:                         0.000001 seconds
   Stalls:                          1 cycles
       Load Only:                   0 cycles
       Store Only:                  1 cycles
       Compute Only:                0 cycles
       Compute & Store:             0 cycles
       Load & Store:                0 cycles
       Load & Compute:              0 cycles
       Load & Compute & Store:      0 cycles
   Executed Nodes:                  10930 cycles
       Load Only:                   0 cycles
       Store Only:                  4 cycles
       Compute Only:                1 cycles
       Compute & Store:             21 cycles
       Load & Store:                0 cycles
       Load & Compute:              6 cycles
       Load & Compute & Store:      10898 cycles

   ========= Runtime FU's ========= (Max | Avg) ===
   Counter FU's:                      32 | 0.046838
   Integer Add/Sub FU's:               0 | 0.000000
   Integer Mul/Div FU's:               0 | 0.000000
   Integer Shifter FU's:               0 | 0.000000
   Integer Bitwise FU's:               1 | 0.000091
   Floating Point Float Add/Sub:       0 | 0.000000
   Floating Point Double Add/Sub:      0 | 0.000000
   Floating Point Float Mul/Div:      34 | 0.044252
   Floating Point Double Mul/Div:      0 | 0.000000
   0 Cycle Compare FU's:             102 | 0.046945
   GEP Instruction FU's:              96 | 0.046835
   Type Conversion FU's:               7 | 0.006782

   ========= Static FU's ==========================
   Counter FU's:                    0
   Integer Add/Sub FU's:            0
   Integer Mul/Div FU's:            0
   Integer Shifter FU's:            0
   Integer Bitwise FU's:            0
   Floating Point Float Add/Sub:    0
   Floating Point Double Add/Sub:   0
   Floating Point Float Mul/Div:    0
   Floating Point Double Mul/Div:   0
   0 Cycle Compare FU's:            0
   GEP Instruction FU's:            0
   Type Conversion FU's:            0
   Other:                           0

   ========= Pipeline Register Usage =============
   Total Number of Registers:       5641
   Max Register Usage Per Cycle:    137
   Avg Register Usage Per Cycle:    12.130992
   Avg Register Size (Bytes):       5.980606

   ========= Memory Configuration =================
   Cache Bus Ports:                 0
   Shared Cache Size:               0kB
   Local Bus Ports:                 0
   Private SPM Size:                256kB
   Private Read Ports:              0
   Private Write Ports:             0
   Private Read Bus Width:          64
   Private Write Bus Width:         64
       Memory Reads:                0
       Memory Writes:               0
   ========= Power Analysis ======================
   FU Leakage Power:                0.045377 mW 
   FU Dynamic Power:                0.142576 mW 
   FU Total Power:                  0.187953 mW 

   Registers Leakage Power:          0.005281 mW 
   Registers Dynamic Power:          0.015326 mW 
       Register Reads (Bits):        132616
       Register Writes (Bits):       133658
   Registers Total Power:            0.020607 mW

   SPM Leakage Power:               0.104100 mW
   SPM Read Dynamic Power:          34.211122 mW
   SPM Write Dynamic Power:         25.575963 mW
   SPM Total Power:                 59.891185 mW

   Cache Leakage Power:             0.000000 mW
   Cache Read Dynamic Power:        0.000000 mW
   Cache Write Dynamic Power:       0.000000 mW
   Cache Total Power:               0.000000 mW

   Accelerator Power:               0.208559 mW
   Accelerator Power (SPM):         60.099745 mW
   Accelerator Power (Cache):       0.208559 mW

   ========= Area Analysis =======================
   FU Area:                         5472.068359 um^2 (0.005472 mm^2)
   Register Area:                   429.271088 um^2 (0.000429 mm^2)
   SPM Area:                        2177.365505 um^2 (0.002177 mm^2)
   Cache Area:                      0.000000 um^2 (0.000000 mm^2)

   Accelerator Area:                5901.339355 um^2 (0.005901 mm^2)
   Accelerator Area (SPM):          8078.704860 um^2 (0.008079 mm^2)
   Accelerator Area (Cache):        5901.339355 um^2 (0.005901 mm^2)

   ========= SPM Resizing  =======================
   SPM Optimized Leakage Power:     0.004248 mW
   SPM Opt Area:                    178.524902 um^2

27091264375: global: Timer #0 started at tick 27091264375
27104550875: system.acctest.elem_matrix0_dma: SRC:0x0000000024020020, DST:0x00000000832adec0, LEN:65536
27104904375: global: Timer #0 stopped at tick 27104904375. Duration: 13640000
27104918750: global: Number of accelerators running = 1
27110836875: system.acctest.elem_matrix0_dma: Transfer completed in 6.286 us
27110910625: global: Timer #0 started at tick 27110910625
27110950625: global: Timer #1 started at tick 27110950625
27111092500: global: Timer #1 stopped at tick 27111092500. Duration: 141875
27111402500: global: DAG ID = 1
27111416250: global: Node ID = 143
27111440625: global: DAG execution time = 19880
27111453750: global: DAG deadline difference = 12880
27111471875: global: Node deadline difference = 12880
27111484375: global: Predicted memory time / byte = 0.000182877 us/byte
27111496875: global: Predicted memory time = 35.955 us
27111509375: global: Predicted memory time / byte = 9.5871e-05 us/byte
27111521875: global: Predicted memory time = 18.849 us
27111534375: global: Predicted memory time / byte = 0.000183083 us/byte
27111546875: global: Predicted memory time = 23 us
27111559375: global: Predicted memory time / byte = 9.56268e-05 us/byte
27111571875: global: Predicted memory time = 6 us
27111670625: global: Timer #0 stopped at tick 27111670625. Duration: 760000
27111685000: global: Number of accelerators running = 0
27111769375: global: Number of forwards = 19
27111923125: global: Number of colocations = 19
27111942500: global: Number of DAG deadlines met = 0
27111962500: global: Number of node deadlines met = 58
27111997500: global: Total predicted compute time = 2712 us
Exiting @ tick 27112266875 because m5_exit instruction encountered
