gem5 Simulator System.  http://gem5.org
gem5 is copyrighted software; use the --copyright option for details.

gem5 compiled Oct  4 2023 20:26:28
gem5 started Oct  6 2023 11:14:19
gem5 executing on node4x10a.cs.rochester.edu, pid 55374
command line: /u/sgupta45/gem5-SALAM/build/ARM/gem5_bus.opt --debug-flags=HWACC,CommInterface,LLVMInterface,StreamDma,NoncoherentDma,TickTimer,SchedulerStats --outdir=BM_ARM_OUT/comb_pred_3_opt_flush_opt_fwd/canny_1_deblur_0_gru_0_harris_1_lstm_1_LAX_MEM_PRED_EWMA_0.25_dm_false configs/SALAM/scheduler.py --mem-size=4GB --mem-type=LPDDR5_6400_1x16_BG_BL32 --kernel=/u/sgupta45/gem5-SALAM/benchmarks/scheduler/sw/bin_comb_pred_3/canny_1_deblur_0_gru_0_harris_1_lstm_1_LAX_MEM_PRED_EWMA_0.25_dm_false.elf --vans-config-path=/u/sgupta45/VANS/config --disk-image=/u/sgupta45/gem5-SALAM/baremetal/common/fake.iso --machine-type=VExpress_GEM5_V1 --dtb-file=none --bare-metal --cpu-type=ex5_LITTLE --cpu-clock=1.6GHz --accpath=/u/sgupta45/gem5-SALAM/benchmarks --caches --cacheline_size=64 --l1d_size=32kB --l1d_assoc=4 --l1i_size=32kB --l1i_assoc=2

Global frequency set at 1000000000000 ticks per second
Cycle Counts Loaded!
Cycle Counts Loaded!
Cycle Counts Loaded!
Cycle Counts Loaded!
Cycle Counts Loaded!
Cycle Counts Loaded!
Cycle Counts Loaded!
Cycle Counts Loaded!
Cycle Counts Loaded!
Cycle Counts Loaded!
Cycle Counts Loaded!
**** REAL SIMULATION ****
3838750: global: Timer #8 started at tick 3838750
7260625: global: Timer #8 stopped at tick 7260625. Duration: 3421875
7330625: global: Timer #8 started at tick 7330625
16689375: global: Timer #8 stopped at tick 16689375. Duration: 9358750
17091875: global: Timer #8 started at tick 17091875
29543750: global: Timer #8 stopped at tick 29543750. Duration: 12451875
30230000: global: Timer #8 started at tick 30230000
30283750: global: Timer #8 stopped at tick 30283750. Duration: 53750
30309375: global: Timer #8 started at tick 30309375
42766250: global: Timer #8 stopped at tick 42766250. Duration: 12456875
45771875: global: Timer #8 started at tick 45771875
45807500: global: Timer #8 stopped at tick 45807500. Duration: 35625
45833750: global: Timer #8 started at tick 45833750
45863125: global: Timer #8 stopped at tick 45863125. Duration: 29375
45923125: global: Timer #8 started at tick 45923125
58376250: global: Timer #8 stopped at tick 58376250. Duration: 12453125
58395000: global: Timer #8 started at tick 58395000
70855625: global: Timer #8 stopped at tick 70855625. Duration: 12460625
70873125: global: Timer #8 started at tick 70873125
83336250: global: Timer #8 stopped at tick 83336250. Duration: 12463125
83353750: global: Timer #8 started at tick 83353750
95811875: global: Timer #8 stopped at tick 95811875. Duration: 12458125
95828750: global: Timer #8 started at tick 95828750
108282500: global: Timer #8 stopped at tick 108282500. Duration: 12453750
108300000: global: Timer #8 started at tick 108300000
120755625: global: Timer #8 stopped at tick 120755625. Duration: 12455625
120772500: global: Timer #8 started at tick 120772500
133226250: global: Timer #8 stopped at tick 133226250. Duration: 12453750
133706875: global: Timer #8 started at tick 133706875
146167500: global: Timer #8 stopped at tick 146167500. Duration: 12460625
146508125: global: Timer #8 started at tick 146508125
149647500: global: Timer #8 stopped at tick 149647500. Duration: 3139375
151027500: global: Timer #8 started at tick 151027500
154258750: global: Timer #8 stopped at tick 154258750. Duration: 3231250
154275625: global: Timer #8 started at tick 154275625
163619375: global: Timer #8 stopped at tick 163619375. Duration: 9343750
164010625: global: Timer #8 started at tick 164010625
176462500: global: Timer #8 stopped at tick 176462500. Duration: 12451875
177645000: global: Timer #8 started at tick 177645000
177680625: global: Timer #8 stopped at tick 177680625. Duration: 35625
177698750: global: Timer #8 started at tick 177698750
177728125: global: Timer #8 stopped at tick 177728125. Duration: 29375
177745000: global: Timer #8 started at tick 177745000
190207500: global: Timer #8 stopped at tick 190207500. Duration: 12462500
190226250: global: Timer #8 started at tick 190226250
202684375: global: Timer #8 stopped at tick 202684375. Duration: 12458125
205285625: global: Timer #8 started at tick 205285625
217742500: global: Timer #8 stopped at tick 217742500. Duration: 12456875
217760625: global: Timer #8 started at tick 217760625
230212500: global: Timer #8 stopped at tick 230212500. Duration: 12451875
230229375: global: Timer #8 started at tick 230229375
242686250: global: Timer #8 stopped at tick 242686250. Duration: 12456875
242703750: global: Timer #8 started at tick 242703750
255156875: global: Timer #8 stopped at tick 255156875. Duration: 12453125
255173750: global: Timer #8 started at tick 255173750
267627500: global: Timer #8 stopped at tick 267627500. Duration: 12453750
267645000: global: Timer #8 started at tick 267645000
280100625: global: Timer #8 stopped at tick 280100625. Duration: 12455625
280117500: global: Timer #8 started at tick 280117500
280164375: global: Timer #8 stopped at tick 280164375. Duration: 46875
282606875: global: Timer #8 started at tick 282606875
295064375: global: Timer #8 stopped at tick 295064375. Duration: 12457500
295110625: global: Timer #8 started at tick 295110625
307562500: global: Timer #8 stopped at tick 307562500. Duration: 12451875
307621875: global: Timer #8 started at tick 307621875
320077500: global: Timer #8 stopped at tick 320077500. Duration: 12455625
320095625: global: Timer #8 started at tick 320095625
332547500: global: Timer #8 stopped at tick 332547500. Duration: 12451875
332564375: global: Timer #8 started at tick 332564375
332599375: global: Timer #8 stopped at tick 332599375. Duration: 35000
332618125: global: Timer #8 started at tick 332618125
345076250: global: Timer #8 stopped at tick 345076250. Duration: 12458125
345093750: global: Timer #8 started at tick 345093750
357547500: global: Timer #8 stopped at tick 357547500. Duration: 12453750
357564375: global: Timer #8 started at tick 357564375
370021250: global: Timer #8 stopped at tick 370021250. Duration: 12456875
370368750: global: Timer #8 started at tick 370368750
373499375: global: Timer #8 stopped at tick 373499375. Duration: 3130625
374512500: global: Timer #8 started at tick 374512500
386971250: global: Timer #8 stopped at tick 386971250. Duration: 12458750
387030625: global: Timer #8 started at tick 387030625
399482500: global: Timer #8 stopped at tick 399482500. Duration: 12451875
399499375: global: Timer #8 started at tick 399499375
411956250: global: Timer #8 stopped at tick 411956250. Duration: 12456875
411974375: global: Timer #8 started at tick 411974375
424431250: global: Timer #8 stopped at tick 424431250. Duration: 12456875
424450000: global: Timer #8 started at tick 424450000
436905625: global: Timer #8 stopped at tick 436905625. Duration: 12455625
436922500: global: Timer #8 started at tick 436922500
449376250: global: Timer #8 stopped at tick 449376250. Duration: 12453750
449393750: global: Timer #8 started at tick 449393750
461847500: global: Timer #8 stopped at tick 461847500. Duration: 12453750
461866250: global: Timer #8 started at tick 461866250
474324375: global: Timer #8 stopped at tick 474324375. Duration: 12458125
474943750: global: Timer #8 started at tick 474943750
487397500: global: Timer #8 stopped at tick 487397500. Duration: 12453750
487414375: global: Timer #8 started at tick 487414375
499871250: global: Timer #8 stopped at tick 499871250. Duration: 12456875
1097117500: global: Timer #8 started at tick 1097117500
1333451250: global: Timer #8 stopped at tick 1333451250. Duration: 236333750
1780836250: global: Timer #8 started at tick 1780836250
2017166250: global: Timer #8 stopped at tick 2017166250. Duration: 236330000
2464664375: global: Timer #8 started at tick 2464664375
2700988125: global: Timer #8 stopped at tick 2700988125. Duration: 236323750
3148339375: global: Timer #8 started at tick 3148339375
3384666250: global: Timer #8 stopped at tick 3384666250. Duration: 236326875
3832193125: global: Timer #8 started at tick 3832193125
4068513125: global: Timer #8 stopped at tick 4068513125. Duration: 236320000
4515678125: global: Timer #8 started at tick 4515678125
4751998125: global: Timer #8 stopped at tick 4751998125. Duration: 236320000
5199375000: global: Timer #8 started at tick 5199375000
5435691250: global: Timer #8 stopped at tick 5435691250. Duration: 236316250
5882898125: global: Timer #8 started at tick 5882898125
6119218125: global: Timer #8 stopped at tick 6119218125. Duration: 236320000
6122505625: global: Timer #2 started at tick 6122505625
6123518750: global: Timer #2 stopped at tick 6123518750. Duration: 1013125
6126015625: global: Timer #2 started at tick 6126015625
6126638125: global: Timer #2 stopped at tick 6126638125. Duration: 622500
6129986875: global: Timer #2 started at tick 6129986875
6130335000: global: Timer #2 stopped at tick 6130335000. Duration: 348125
6152423750: global: Timer #6 started at tick 6152423750
6153070625: global: Timer #7 started at tick 6153070625
6153831625: system.acctest.elem_matrix0_dma: SRC:0x000000008241e940, DST:0x0000000024000020, LEN:65536
6154113125: global: Timer #7 stopped at tick 6154113125. Duration: 1042500
6154228750: global: Timer #6 stopped at tick 6154228750. Duration: 1805000
6154502500: global: Timer #6 started at tick 6154502500
6155025625: global: Timer #7 started at tick 6155025625
6155752375: system.acctest.isp0_dma: SRC:0x0000000082092e80, DST:0x0000000027000020, LEN:16900
6156075000: global: Timer #7 stopped at tick 6156075000. Duration: 1049375
6156106250: global: Timer #6 stopped at tick 6156106250. Duration: 1603750
6156173750: global: Number of accelerators running = 2
6160078375: system.acctest.isp0_dma: Transfer completed in 4.326 us
6160758750: global: Timer #0 started at tick 6160758750
6162291250: global: Timer #1 started at tick 6162291250
6162979375: global: Timer #1 stopped at tick 6162979375. Duration: 688125
6163646875: global: Timer #6 started at tick 6163646875
6163945625: global: Timer #7 started at tick 6163945625
6164477500: global: Timer #7 stopped at tick 6164477500. Duration: 531875
6164769375: global: Timer #6 stopped at tick 6164769375. Duration: 1122500
6165135625: global: Timer #0 stopped at tick 6165135625. Duration: 4376875
6165154375: global: Number of accelerators running = 2
6167087625: system.acctest.elem_matrix0_dma: Transfer completed in 13.256 us
6167225000: global: Timer #0 started at tick 6167225000
6167625000: global: Timer #1 started at tick 6167625000
6167965625: global: Timer #1 stopped at tick 6167965625. Duration: 340625
6168205625: global: Timer #6 started at tick 6168205625
6168705000: global: Timer #7 started at tick 6168705000
6169350875: system.acctest.elem_matrix0_dma: SRC:0x00000000822de780, DST:0x0000000024010020, LEN:65536
6169482500: global: Timer #7 stopped at tick 6169482500. Duration: 777500
6169558125: global: Timer #6 stopped at tick 6169558125. Duration: 1352500
6169676250: global: Timer #0 stopped at tick 6169676250. Duration: 2451250
6169690625: global: Number of accelerators running = 2
6181334875: system.acctest.elem_matrix0_dma: Transfer completed in 11.984 us
6181410000: global: Timer #0 started at tick 6181410000
6181757500: global: Timer #1 started at tick 6181757500
6181890000: global: Timer #1 stopped at tick 6181890000. Duration: 132500
6182193750: global: Timer #6 started at tick 6182193750
6182279375: global: Timer #7 started at tick 6182279375
6183305000: global: Timer #7 stopped at tick 6183305000. Duration: 1025625
6183396875: global: Timer #6 stopped at tick 6183396875. Duration: 1203125
6183520625: global: Timer #0 stopped at tick 6183520625. Duration: 2110625
6183535000: global: Number of accelerators running = 2
********************************************************************************
system.acctest.elem_matrix0.compute
   ========= Performance Analysis =============
   Setup Time:                      5.20594seconds
   Simulation Time:                 415.578seconds
   System Clock:                    1GHz
   Transistor Latency:              1ns
   Runtime:                         10932 cycles
   Runtime:                         10.932 us
   Stalls:                          0 cycles
   Executed Nodes:                  10931 cycles

********************************************************************************
   ========= Performance Analysis =================
   Setup Time:                      5.20594e+09ns
   Simulation Time:                 4.15578e+11ns
   System Clock:                    1GHz
   Transistor Latency:              0ns
   Runtime:                         10932 cycles
   Runtime:                         1.0932e-06 seconds
   Stalls:                          0 cycles
       Load Only:                   0 cycles
       Store Only:                  0 cycles
       Compute Only:                0 cycles
       Compute & Store:             0 cycles
       Load & Store:                0 cycles
       Load & Compute:              0 cycles
       Load & Compute & Store:      0 cycles
   Executed Nodes:                  10931 cycles
       Load Only:                   0 cycles
       Store Only:                  5 cycles
       Compute Only:                1 cycles
       Compute & Store:             21 cycles
       Load & Store:                0 cycles
       Load & Compute:              7 cycles
       Load & Compute & Store:      10897 cycles

   ========= Runtime FU's ========= (Max | Avg) ===
   Counter FU's:                      32 | 0.046838
   Integer Add/Sub FU's:               0 | 0.000000
   Integer Mul/Div FU's:               0 | 0.000000
   Integer Shifter FU's:               0 | 0.000000
   Integer Bitwise FU's:               1 | 0.000091
   Floating Point Float Add/Sub:      34 | 0.044252
   Floating Point Double Add/Sub:      0 | 0.000000
   Floating Point Float Mul/Div:       0 | 0.000000
   Floating Point Double Mul/Div:      0 | 0.000000
   0 Cycle Compare FU's:             102 | 0.046974
   GEP Instruction FU's:              96 | 0.046835
   Type Conversion FU's:               7 | 0.006782

   ========= Static FU's ==========================
   Counter FU's:                    0
   Integer Add/Sub FU's:            0
   Integer Mul/Div FU's:            0
   Integer Shifter FU's:            0
   Integer Bitwise FU's:            0
   Floating Point Float Add/Sub:    0
   Floating Point Double Add/Sub:   0
   Floating Point Float Mul/Div:    0
   Floating Point Double Mul/Div:   0
   0 Cycle Compare FU's:            0
   GEP Instruction FU's:            0
   Type Conversion FU's:            0
   Other:                           0

   ========= Pipeline Register Usage =============
   Total Number of Registers:       5641
   Max Register Usage Per Cycle:    138
   Avg Register Usage Per Cycle:    12.130992
   Avg Register Size (Bytes):       5.980606

   ========= Memory Configuration =================
   Cache Bus Ports:                 0
   Shared Cache Size:               0kB
   Local Bus Ports:                 0
   Private SPM Size:                256kB
   Private Read Ports:              0
   Private Write Ports:             0
   Private Read Bus Width:          64
   Private Write Bus Width:         64
       Memory Reads:                0
       Memory Writes:               0
   ========= Power Analysis ======================
   FU Leakage Power:                0.519269 mW 
   FU Dynamic Power:                0.154621 mW 
   FU Total Power:                  0.673890 mW 

   Registers Leakage Power:          0.005281 mW 
   Registers Dynamic Power:          0.015326 mW 
       Register Reads (Bits):        132616
       Register Writes (Bits):       133658
   Registers Total Power:            0.020607 mW

   SPM Leakage Power:               0.104100 mW
   SPM Read Dynamic Power:          1.997266 mW
   SPM Write Dynamic Power:         0.953321 mW
   SPM Total Power:                 3.054688 mW

   SPM Energy Per Read Access:      0.170493 nJ
   SPM Energy Per Write Access:     0.218190 nJ

   Cache Leakage Power:             0.000000 mW
   Cache Read Dynamic Power:        0.000000 mW
   Cache Write Dynamic Power:       0.000000 mW
   Cache Total Power:               0.000000 mW

   Accelerator Power:               0.694497 mW
   Accelerator Power (SPM):         3.749184 mW
   Accelerator Power (Cache):       0.694497 mW

   ========= Area Analysis =======================
   FU Area:                         70212.562500 um^2 (0.070213 mm^2)
   Register Area:                   429.271088 um^2 (0.000429 mm^2)
   SPM Area:                        2177.365505 um^2 (0.002177 mm^2)
   Cache Area:                      0.000000 um^2 (0.000000 mm^2)

   Accelerator Area:                70641.835938 um^2 (0.070642 mm^2)
   Accelerator Area (SPM):          72819.201442 um^2 (0.072819 mm^2)
   Accelerator Area (Cache):        70641.835938 um^2 (0.070642 mm^2)

   ========= SPM Resizing  =======================
   SPM Optimized Leakage Power:     0.004248 mW
   SPM Opt Area:                    178.524902 um^2

6194190000: global: Timer #0 started at tick 6194190000
6194481875: global: Timer #2 started at tick 6194481875
6195375000: global: Timer #2 stopped at tick 6195375000. Duration: 893125
6195484375: global: Timer #2 started at tick 6195484375
6196052500: global: Timer #2 stopped at tick 6196052500. Duration: 568125
6196162500: global: Timer #2 started at tick 6196162500
6196584375: global: Timer #2 stopped at tick 6196584375. Duration: 421875
6196683750: global: Timer #2 started at tick 6196683750
6197027500: global: Timer #2 stopped at tick 6197027500. Duration: 343750
6197942500: global: Timer #7 started at tick 6197942500
6198589500: system.acctest.elem_matrix0_dma: SRC:0x0000000024030020, DST:0x00000000822ee780, LEN:65536
6198738125: global: Timer #7 stopped at tick 6198738125. Duration: 795625
6199082500: global: Timer #0 stopped at tick 6199082500. Duration: 4892500
6199096875: global: Number of accelerators running = 2
********************************************************************************
system.acctest.isp0.compute
   ========= Performance Analysis =============
   Setup Time:                      0.302599seconds
   Simulation Time:                 862.085287seconds
   System Clock:                    1.000000GHz
   Transistor Latency:              1ns
   Runtime:                         34882 cycles
   Runtime:                         34.882000 us
   Stalls:                          1 cycles
   Executed Nodes:                  34880 cycles

********************************************************************************
   ========= Performance Analysis =================
   Setup Time:                      302598617.000000ns
   Simulation Time:                 862085287301.000000ns
   System Clock:                    1.000000GHz
   Transistor Latency:              0ns
   Runtime:                         34882 cycles
   Runtime:                         0.000003 seconds
   Stalls:                          1 cycles
       Load Only:                   0 cycles
       Store Only:                  1 cycles
       Compute Only:                0 cycles
       Compute & Store:             0 cycles
       Load & Store:                0 cycles
       Load & Compute:              0 cycles
       Load & Compute & Store:      0 cycles
   Executed Nodes:                  34880 cycles
       Load Only:                   0 cycles
       Store Only:                  1 cycles
       Compute Only:                3453 cycles
       Compute & Store:             19014 cycles
       Load & Store:                0 cycles
       Load & Compute:              2467 cycles
       Load & Compute & Store:      9945 cycles

   ========= Runtime FU's ========= (Max | Avg) ===
   Counter FU's:                      10 | 0.118075
   Integer Add/Sub FU's:              76 | 0.082082
   Integer Mul/Div FU's:              11 | 0.043888
   Integer Shifter FU's:              42 | 0.055974
   Integer Bitwise FU's:               4 | 0.059443
   Floating Point Float Add/Sub:      53 | 0.116839
   Floating Point Double Add/Sub:      0 | 0.000000
   Floating Point Float Mul/Div:      76 | 0.625626
   Floating Point Double Mul/Div:      0 | 0.000000
   0 Cycle Compare FU's:              85 | 0.664984
   GEP Instruction FU's:              33 | 0.117424
   Type Conversion FU's:             110 | 0.379700

   ========= Static FU's ==========================
   Counter FU's:                    0
   Integer Add/Sub FU's:            0
   Integer Mul/Div FU's:            0
   Integer Shifter FU's:            0
   Integer Bitwise FU's:            0
   Floating Point Float Add/Sub:    0
   Floating Point Double Add/Sub:   0
   Floating Point Float Mul/Div:    0
   Floating Point Double Mul/Div:   0
   0 Cycle Compare FU's:            0
   GEP Instruction FU's:            0
   Type Conversion FU's:            0
   Other:                           0

   ========= Pipeline Register Usage =============
   Total Number of Registers:       1620
   Max Register Usage Per Cycle:    151
   Avg Register Usage Per Cycle:    58.744711
   Avg Register Size (Bytes):       5.073357

   ========= Memory Configuration =================
   Cache Bus Ports:                 0
   Shared Cache Size:               0kB
   Local Bus Ports:                 0
   Private SPM Size:                112kB
   Private Read Ports:              0
   Private Write Ports:             0
   Private Read Bus Width:          64
   Private Write Bus Width:         64
       Memory Reads:                0
       Memory Writes:               0
   ========= Power Analysis ======================
   FU Leakage Power:                1.637787 mW 
   FU Dynamic Power:                9.655087 mW 
   FU Total Power:                  11.292874 mW 

   Registers Leakage Power:          0.021654 mW 
   Registers Dynamic Power:          3.085961 mW 
       Register Reads (Bits):        2049133
       Register Writes (Bits):       2049168
   Registers Total Power:            3.107615 mW

   SPM Leakage Power:               0.061081 mW
   SPM Read Dynamic Power:          11.103730 mW
   SPM Write Dynamic Power:         7.385230 mW
   SPM Total Power:                 18.550041 mW

   SPM Energy Per Read Access:      0.142059 nJ
   SPM Energy Per Write Access:     0.255513 nJ

   Cache Leakage Power:             0.000000 mW
   Cache Read Dynamic Power:        0.000000 mW
   Cache Write Dynamic Power:       0.000000 mW
   Cache Total Power:               0.000000 mW

   Accelerator Power:               14.400490 mW
   Accelerator Power (SPM):         32.950531 mW
   Accelerator Power (Cache):       14.400490 mW

   ========= Area Analysis =======================
   FU Area:                         176023.796875 um^2 (0.176024 mm^2)
   Register Area:                   1760.064941 um^2 (0.001760 mm^2)
   SPM Area:                        2165.394891 um^2 (0.002165 mm^2)
   Cache Area:                      0.000000 um^2 (0.000000 mm^2)

   Accelerator Area:                177783.859375 um^2 (0.177784 mm^2)
   Accelerator Area (SPM):          179949.254266 um^2 (0.179949 mm^2)
   Accelerator Area (Cache):        177783.859375 um^2 (0.177784 mm^2)

   ========= SPM Resizing  =======================
   SPM Optimized Leakage Power:     0.005964 mW
   SPM Opt Area:                    422.108128 um^2

6199328125: global: Timer #0 started at tick 6199328125
6200190000: global: Timer #2 started at tick 6200190000
6200532500: global: Timer #2 stopped at tick 6200532500. Duration: 342500
6200841250: global: DAG ID = 0
6200859375: global: Node ID = 0
6200922500: global: Node deadline difference = -13515
6200940625: global: Predicted memory time / byte = 7.27596e-05 us/byte
6200958750: global: Predicted memory time = 1.22964 us
6200976875: global: Predicted memory time / byte = 7.27596e-05 us/byte
6200995000: global: Predicted memory time = 3.57628 us
6201057500: global: Predicted memory time / byte = 0.000304024 us/byte
6201075625: global: Predicted memory time = 5.138 us
6201093750: global: Predicted memory time / byte = 0 us/byte
6201111875: global: Predicted memory time = 0 us
6201130000: global: Predicted memory access size = 0
6201148125: global: Predicted memory access size = 16900
6201210000: global: Predicted memory access size = 0
6201228750: global: Predicted memory access size = 0
6201370625: global: Timer #6 started at tick 6201370625
6201764375: global: Timer #7 started at tick 6201764375
6202415000: system.acctest.grayscale0_dma: SRC:0x0000000027010224, DST:0x0000000025000020, LEN:49152
6202723125: global: Timer #7 stopped at tick 6202723125. Duration: 958750
6202871250: global: Timer #6 stopped at tick 6202871250. Duration: 1500625
6203008750: global: Timer #6 started at tick 6203008750
6204009375: global: Timer #7 started at tick 6204009375
6204720000: system.acctest.isp0_dma: SRC:0x0000000082148980, DST:0x0000000027000020, LEN:16900
6204860625: global: Timer #7 stopped at tick 6204860625. Duration: 851250
6204933750: global: Timer #6 stopped at tick 6204933750. Duration: 1925000
6204982500: global: Timer #0 stopped at tick 6204982500. Duration: 5654375
6204996875: global: Number of accelerators running = 3
6207956500: system.acctest.elem_matrix0_dma: Transfer completed in 9.367 us
6208047500: global: Timer #0 started at tick 6208047500
6208670625: global: Timer #1 started at tick 6208670625
6209049375: global: Timer #1 stopped at tick 6209049375. Duration: 378750
6209322500: global: DAG ID = 2
6209340625: global: Node ID = 0
6209407500: global: Node deadline difference = -3629
6209425625: global: Predicted memory time / byte = 7.27596e-05 us/byte
6209443750: global: Predicted memory time = 9.53674 us
6209461875: global: Predicted memory time / byte = 7.27596e-05 us/byte
6209480000: global: Predicted memory time = 4.76837 us
6209498125: global: Predicted memory time / byte = 0.000192558 us/byte
6209516250: global: Predicted memory time = 25.239 us
6209534375: global: Predicted memory time / byte = 0.000144363 us/byte
6209552500: global: Predicted memory time = 9.461 us
6209570625: global: Predicted memory access size = 0
6209588750: global: Predicted memory access size = 131072
6209606875: global: Predicted memory access size = 0
6209625000: global: Predicted memory access size = 65536
6209727500: global: Timer #6 started at tick 6209727500
6209837000: system.acctest.isp0_dma: Transfer completed in 5.117 us
6210286875: global: Timer #7 started at tick 6210286875
6210948000: system.acctest.elem_matrix0_dma: SRC:0x000000008225e600, DST:0x0000000024010020, LEN:65536
6211080000: global: Timer #7 stopped at tick 6211080000. Duration: 793125
6211108750: global: Timer #6 stopped at tick 6211108750. Duration: 1381250
6211210000: global: Timer #0 stopped at tick 6211210000. Duration: 3162500
6211224375: global: Number of accelerators running = 3
6211341250: global: Timer #0 started at tick 6211341250
6211680000: global: Timer #1 started at tick 6211680000
6211893750: global: Timer #1 stopped at tick 6211893750. Duration: 213750
6212210625: global: Timer #6 started at tick 6212210625
6212261250: global: Timer #7 started at tick 6212261250
6212783125: global: Timer #7 stopped at tick 6212783125. Duration: 521875
6212808750: global: Timer #6 stopped at tick 6212808750. Duration: 598125
6212929375: global: Timer #0 stopped at tick 6212929375. Duration: 1588125
6212943750: global: Number of accelerators running = 3
6215333000: system.acctest.grayscale0_dma: Transfer completed in 12.918 us
6215427500: global: Timer #0 started at tick 6215427500
6215758125: global: Timer #1 started at tick 6215758125
6215940000: global: Timer #1 stopped at tick 6215940000. Duration: 181875
6216230000: global: Timer #6 started at tick 6216230000
6216362500: global: Timer #7 started at tick 6216362500
6216809375: global: Timer #7 stopped at tick 6216809375. Duration: 446875
6216991875: global: Timer #6 stopped at tick 6216991875. Duration: 761875
6217099375: global: Timer #0 stopped at tick 6217099375. Duration: 1671875
6217113750: global: Number of accelerators running = 3
6222890000: system.acctest.elem_matrix0_dma: Transfer completed in 11.942 us
6222974375: global: Timer #0 started at tick 6222974375
6223313125: global: Timer #1 started at tick 6223313125
6223447500: global: Timer #1 stopped at tick 6223447500. Duration: 134375
6223685000: global: Timer #6 started at tick 6223685000
6223765625: global: Timer #7 started at tick 6223765625
6224788125: global: Timer #7 stopped at tick 6224788125. Duration: 1022500
6225120625: global: Timer #6 stopped at tick 6225120625. Duration: 1435625
6225221875: global: Timer #0 stopped at tick 6225221875. Duration: 2247500
6225236250: global: Number of accelerators running = 3
********************************************************************************
system.acctest.grayscale0.compute
   ========= Performance Analysis =============
   Setup Time:                      0.015123seconds
   Simulation Time:                 503.513496seconds
   System Clock:                    1.000000GHz
   Transistor Latency:              1ns
   Runtime:                         10263 cycles
   Runtime:                         10.263000 us
   Stalls:                          1 cycles
   Executed Nodes:                  10261 cycles

********************************************************************************
   ========= Performance Analysis =================
   Setup Time:                      15123492.000000ns
   Simulation Time:                 503513496483.000000ns
   System Clock:                    1.000000GHz
   Transistor Latency:              0ns
   Runtime:                         10263 cycles
   Runtime:                         0.000001 seconds
   Stalls:                          1 cycles
       Load Only:                   0 cycles
       Store Only:                  1 cycles
       Compute Only:                0 cycles
       Compute & Store:             0 cycles
       Load & Store:                0 cycles
       Load & Compute:              0 cycles
       Load & Compute & Store:      0 cycles
   Executed Nodes:                  10261 cycles
       Load Only:                   0 cycles
       Store Only:                  1 cycles
       Compute Only:                88 cycles
       Compute & Store:             344 cycles
       Load & Store:                0 cycles
       Load & Compute:              1981 cycles
       Load & Compute & Store:      7847 cycles

   ========= Runtime FU's ========= (Max | Avg) ===
   Counter FU's:                      24 | 0.199556
   Integer Add/Sub FU's:               0 | 0.000000
   Integer Mul/Div FU's:               8 | 0.199552
   Integer Shifter FU's:               0 | 0.000000
   Integer Bitwise FU's:               1 | 0.000097
   Floating Point Float Add/Sub:      49 | 0.114264
   Floating Point Double Add/Sub:      0 | 0.000000
   Floating Point Float Mul/Div:      42 | 0.114129
   Floating Point Double Mul/Div:      0 | 0.000000
   0 Cycle Compare FU's:               9 | 0.066626
   GEP Instruction FU's:              36 | 0.177452
   Type Conversion FU's:              76 | 0.401969

   ========= Static FU's ==========================
   Counter FU's:                    0
   Integer Add/Sub FU's:            0
   Integer Mul/Div FU's:            0
   Integer Shifter FU's:            0
   Integer Bitwise FU's:            0
   Floating Point Float Add/Sub:    0
   Floating Point Double Add/Sub:   0
   Floating Point Float Mul/Div:    0
   Floating Point Double Mul/Div:   0
   0 Cycle Compare FU's:            0
   GEP Instruction FU's:            0
   Type Conversion FU's:            0
   Other:                           0

   ========= Pipeline Register Usage =============
   Total Number of Registers:       235
   Max Register Usage Per Cycle:    90
   Avg Register Usage Per Cycle:    33.924291
   Avg Register Size (Bytes):       5.841147

   ========= Memory Configuration =================
   Cache Bus Ports:                 0
   Shared Cache Size:               0kB
   Local Bus Ports:                 0
   Private SPM Size:                176kB
   Private Read Ports:              0
   Private Write Ports:             0
   Private Read Bus Width:          64
   Private Write Bus Width:         64
       Memory Reads:                0
       Memory Writes:               0
   ========= Power Analysis ======================
   FU Leakage Power:                1.178269 mW 
   FU Dynamic Power:                0.617392 mW 
   FU Total Power:                  1.795662 mW 

   Registers Leakage Power:          0.014185 mW 
   Registers Dynamic Power:          0.101057 mW 
       Register Reads (Bits):        348165
       Register Writes (Bits):       348168
   Registers Total Power:            0.115242 mW

   SPM Leakage Power:               0.089881 mW
   SPM Read Dynamic Power:          6.997296 mW
   SPM Write Dynamic Power:         2.062375 mW
   SPM Total Power:                 9.149552 mW

   SPM Energy Per Read Access:      0.161778 nJ
   SPM Energy Per Write Access:     0.205661 nJ

   Cache Leakage Power:             0.000000 mW
   Cache Read Dynamic Power:        0.000000 mW
   Cache Write Dynamic Power:       0.000000 mW
   Cache Total Power:               0.000000 mW

   Accelerator Power:               1.910904 mW
   Accelerator Power (SPM):         11.060456 mW
   Accelerator Power (Cache):       1.910904 mW

   ========= Area Analysis =======================
   FU Area:                         143348.187500 um^2 (0.143348 mm^2)
   Register Area:                   1152.968140 um^2 (0.001153 mm^2)
   SPM Area:                        3573.642862 um^2 (0.003574 mm^2)
   Cache Area:                      0.000000 um^2 (0.000000 mm^2)

   Accelerator Area:                144501.156250 um^2 (0.144501 mm^2)
   Accelerator Area (SPM):          148074.799112 um^2 (0.148075 mm^2)
   Accelerator Area (Cache):        144501.156250 um^2 (0.144501 mm^2)

   ========= SPM Resizing  =======================
   SPM Optimized Leakage Power:     0.003633 mW
   SPM Opt Area:                    364.024374 um^2

6226996250: global: Timer #0 started at tick 6226996250
6227381875: global: Timer #2 started at tick 6227381875
6227786250: global: Timer #2 stopped at tick 6227786250. Duration: 404375
6228026250: global: DAG ID = 0
6228038750: global: Node ID = 1
6228051875: global: Node deadline difference = -13524
6228064375: global: Predicted memory time / byte = 0.000254646 us/byte
6228076875: global: Predicted memory time = 12.5163 us
6228089375: global: Predicted memory time / byte = 0.000254646 us/byte
6228101875: global: Predicted memory time = 16.6885 us
6228114375: global: Predicted memory time / byte = 0.000262004 us/byte
6228126875: global: Predicted memory time = 12.878 us
6228139375: global: Predicted memory time / byte = 0 us/byte
6228151875: global: Predicted memory time = 0 us
6228164375: global: Predicted memory access size = 0
6228176875: global: Predicted memory access size = 49152
6228189375: global: Predicted memory access size = 0
6228201875: global: Predicted memory access size = 0
6228274375: global: Timer #6 started at tick 6228274375
6228753750: global: Timer #7 started at tick 6228753750
6229510875: system.acctest.convolution0_dma: SRC:0x000000002501c020, DST:0x0000000022000020, LEN:65536
6229766875: global: Timer #7 stopped at tick 6229766875. Duration: 1013125
6229795625: global: Timer #6 stopped at tick 6229795625. Duration: 1521250
6229923750: global: Timer #0 stopped at tick 6229923750. Duration: 2927500
6229938125: global: Number of accelerators running = 3
********************************************************************************
system.acctest.elem_matrix0.compute
   ========= Performance Analysis =============
   Setup Time:                      5.267243seconds
   Simulation Time:                 506.510330seconds
   System Clock:                    1.000000GHz
   Transistor Latency:              1ns
   Runtime:                         10932 cycles
   Runtime:                         10.932000 us
   Stalls:                          1 cycles
   Executed Nodes:                  10930 cycles

********************************************************************************
   ========= Performance Analysis =================
   Setup Time:                      5267242936.000000ns
   Simulation Time:                 506510330286.000000ns
   System Clock:                    1.000000GHz
   Transistor Latency:              0ns
   Runtime:                         10932 cycles
   Runtime:                         0.000001 seconds
   Stalls:                          1 cycles
       Load Only:                   0 cycles
       Store Only:                  1 cycles
       Compute Only:                0 cycles
       Compute & Store:             0 cycles
       Load & Store:                0 cycles
       Load & Compute:              0 cycles
       Load & Compute & Store:      0 cycles
   Executed Nodes:                  10930 cycles
       Load Only:                   0 cycles
       Store Only:                  4 cycles
       Compute Only:                1 cycles
       Compute & Store:             21 cycles
       Load & Store:                0 cycles
       Load & Compute:              6 cycles
       Load & Compute & Store:      10898 cycles

   ========= Runtime FU's ========= (Max | Avg) ===
   Counter FU's:                      32 | 0.046838
   Integer Add/Sub FU's:               0 | 0.000000
   Integer Mul/Div FU's:               0 | 0.000000
   Integer Shifter FU's:               0 | 0.000000
   Integer Bitwise FU's:               1 | 0.000091
   Floating Point Float Add/Sub:       0 | 0.000000
   Floating Point Double Add/Sub:      0 | 0.000000
   Floating Point Float Mul/Div:      34 | 0.044252
   Floating Point Double Mul/Div:      0 | 0.000000
   0 Cycle Compare FU's:             102 | 0.046945
   GEP Instruction FU's:              96 | 0.046835
   Type Conversion FU's:               7 | 0.006782

   ========= Static FU's ==========================
   Counter FU's:                    0
   Integer Add/Sub FU's:            0
   Integer Mul/Div FU's:            0
   Integer Shifter FU's:            0
   Integer Bitwise FU's:            0
   Floating Point Float Add/Sub:    0
   Floating Point Double Add/Sub:   0
   Floating Point Float Mul/Div:    0
   Floating Point Double Mul/Div:   0
   0 Cycle Compare FU's:            0
   GEP Instruction FU's:            0
   Type Conversion FU's:            0
   Other:                           0

   ========= Pipeline Register Usage =============
   Total Number of Registers:       5641
   Max Register Usage Per Cycle:    137
   Avg Register Usage Per Cycle:    12.130992
   Avg Register Size (Bytes):       5.980606

   ========= Memory Configuration =================
   Cache Bus Ports:                 0
   Shared Cache Size:               0kB
   Local Bus Ports:                 0
   Private SPM Size:                256kB
   Private Read Ports:              0
   Private Write Ports:             0
   Private Read Bus Width:          64
   Private Write Bus Width:         64
       Memory Reads:                0
       Memory Writes:               0
   ========= Power Analysis ======================
   FU Leakage Power:                0.045377 mW 
   FU Dynamic Power:                0.142576 mW 
   FU Total Power:                  0.187953 mW 

   Registers Leakage Power:          0.005281 mW 
   Registers Dynamic Power:          0.015326 mW 
       Register Reads (Bits):        132616
       Register Writes (Bits):       133658
   Registers Total Power:            0.020607 mW

   SPM Leakage Power:               0.104100 mW
   SPM Read Dynamic Power:          2.785289 mW
   SPM Write Dynamic Power:         2.044305 mW
   SPM Total Power:                 4.933694 mW

   SPM Energy Per Read Access:      0.170493 nJ
   SPM Energy Per Write Access:     0.218190 nJ

   Cache Leakage Power:             0.000000 mW
   Cache Read Dynamic Power:        0.000000 mW
   Cache Write Dynamic Power:       0.000000 mW
   Cache Total Power:               0.000000 mW

   Accelerator Power:               0.208559 mW
   Accelerator Power (SPM):         5.142254 mW
   Accelerator Power (Cache):       0.208559 mW

   ========= Area Analysis =======================
   FU Area:                         5472.068359 um^2 (0.005472 mm^2)
   Register Area:                   429.271088 um^2 (0.000429 mm^2)
   SPM Area:                        2177.365505 um^2 (0.002177 mm^2)
   Cache Area:                      0.000000 um^2 (0.000000 mm^2)

   Accelerator Area:                5901.339355 um^2 (0.005901 mm^2)
   Accelerator Area (SPM):          8078.704860 um^2 (0.008079 mm^2)
   Accelerator Area (Cache):        5901.339355 um^2 (0.005901 mm^2)

   ========= SPM Resizing  =======================
   SPM Optimized Leakage Power:     0.004248 mW
   SPM Opt Area:                    178.524902 um^2

6235688125: global: Timer #0 started at tick 6235688125
6235993125: global: Timer #2 started at tick 6235993125
6236353750: global: Timer #2 stopped at tick 6236353750. Duration: 360625
6236482500: global: Timer #7 started at tick 6236482500
6237124000: system.acctest.elem_matrix0_dma: SRC:0x0000000024020020, DST:0x00000000822fe780, LEN:65536
6237256250: global: Timer #7 stopped at tick 6237256250. Duration: 773750
6237521875: global: Timer #0 stopped at tick 6237521875. Duration: 1833750
6237536250: global: Number of accelerators running = 3
6240852875: system.acctest.convolution0_dma: Transfer completed in 11.342 us
6240946875: global: Timer #0 started at tick 6240946875
6241283750: global: Timer #1 started at tick 6241283750
6241423125: global: Timer #1 stopped at tick 6241423125. Duration: 139375
6241661250: global: Timer #6 started at tick 6241661250
6241847500: global: Timer #7 started at tick 6241847500
6242526000: system.acctest.convolution0_dma: SRC:0x00000000820b33c0, DST:0x0000000022030020, LEN:100
6242718750: global: Timer #7 stopped at tick 6242718750. Duration: 871250
6242752500: global: Timer #6 stopped at tick 6242752500. Duration: 1091250
6242819000: system.acctest.convolution0_dma: Transfer completed in 0.293 us
6242854375: global: Timer #0 stopped at tick 6242854375. Duration: 1907500
6242868750: global: Number of accelerators running = 3
6242983125: global: Timer #0 started at tick 6242983125
6243471875: global: Timer #6 started at tick 6243471875
6243530625: global: Timer #7 started at tick 6243530625
6244650000: global: Timer #7 stopped at tick 6244650000. Duration: 1119375
6244705000: global: Timer #6 stopped at tick 6244705000. Duration: 1233125
6244800000: global: Timer #0 stopped at tick 6244800000. Duration: 1816875
6244814375: global: Number of accelerators running = 3
6245527000: system.acctest.elem_matrix0_dma: Transfer completed in 8.403 us
6245611875: global: Timer #0 started at tick 6245611875
6245946875: global: Timer #1 started at tick 6245946875
6246088125: global: Timer #1 stopped at tick 6246088125. Duration: 141250
6246293125: global: DAG ID = 2
6246305625: global: Node ID = 1
6246340000: global: Node deadline difference = -3649
6246352500: global: Predicted memory time / byte = 0.000254646 us/byte
6246365000: global: Predicted memory time = 33.3769 us
6246377500: global: Predicted memory time / byte = 0.000254646 us/byte
6246390000: global: Predicted memory time = 16.6885 us
6246402500: global: Predicted memory time / byte = 0.000182251 us/byte
6246415000: global: Predicted memory time = 11.944 us
6246427500: global: Predicted memory time / byte = 0.000128067 us/byte
6246440000: global: Predicted memory time = 8.393 us
6246452500: global: Predicted memory access size = 0
6246465000: global: Predicted memory access size = 65536
6246477500: global: Predicted memory access size = 0
6246490000: global: Predicted memory access size = 65536
6246576875: global: Timer #6 started at tick 6246576875
6246688125: global: Timer #7 started at tick 6246688125
6247331625: system.acctest.elem_matrix0_dma: SRC:0x00000000822ee780, DST:0x0000000024000020, LEN:65536
6247462500: global: Timer #7 stopped at tick 6247462500. Duration: 774375
6247488125: global: Timer #6 stopped at tick 6247488125. Duration: 911250
********************************************************************************
system.acctest.isp0.compute
   ========= Performance Analysis =============
   Setup Time:                      0.372082seconds
   Simulation Time:                 1229.343381seconds
   System Clock:                    1.000000GHz
   Transistor Latency:              1ns
   Runtime:                         34882 cycles
   Runtime:                         34.882000 us
   Stalls:                          1 cycles
   Executed Nodes:                  34880 cycles

********************************************************************************
   ========= Performance Analysis =================
   Setup Time:                      372082455.000000ns
   Simulation Time:                 1229343380869.000000ns
   System Clock:                    1.000000GHz
   Transistor Latency:              0ns
   Runtime:                         34882 cycles
   Runtime:                         0.000003 seconds
   Stalls:                          1 cycles
       Load Only:                   0 cycles
       Store Only:                  1 cycles
       Compute Only:                0 cycles
       Compute & Store:             0 cycles
       Load & Store:                0 cycles
       Load & Compute:              0 cycles
       Load & Compute & Store:      0 cycles
   Executed Nodes:                  34880 cycles
       Load Only:                   0 cycles
       Store Only:                  1 cycles
       Compute Only:                3447 cycles
       Compute & Store:             19014 cycles
       Load & Store:                0 cycles
       Load & Compute:              2473 cycles
       Load & Compute & Store:      9945 cycles

   ========= Runtime FU's ========= (Max | Avg) ===
   Counter FU's:                      10 | 0.118075
   Integer Add/Sub FU's:              76 | 0.082054
   Integer Mul/Div FU's:              11 | 0.043888
   Integer Shifter FU's:              42 | 0.055975
   Integer Bitwise FU's:               4 | 0.059443
   Floating Point Float Add/Sub:      50 | 0.123926
   Floating Point Double Add/Sub:      0 | 0.000000
   Floating Point Float Mul/Div:      81 | 0.587002
   Floating Point Double Mul/Div:      0 | 0.000000
   0 Cycle Compare FU's:              87 | 0.649766
   GEP Instruction FU's:              33 | 0.117424
   Type Conversion FU's:             110 | 0.379673

   ========= Static FU's ==========================
   Counter FU's:                    0
   Integer Add/Sub FU's:            0
   Integer Mul/Div FU's:            0
   Integer Shifter FU's:            0
   Integer Bitwise FU's:            0
   Floating Point Float Add/Sub:    0
   Floating Point Double Add/Sub:   0
   Floating Point Float Mul/Div:    0
   Floating Point Double Mul/Div:   0
   0 Cycle Compare FU's:            0
   GEP Instruction FU's:            0
   Type Conversion FU's:            0
   Other:                           0

   ========= Pipeline Register Usage =============
   Total Number of Registers:       1620
   Max Register Usage Per Cycle:    152
   Avg Register Usage Per Cycle:    58.744711
   Avg Register Size (Bytes):       5.073357

   ========= Memory Configuration =================
   Cache Bus Ports:                 0
   Shared Cache Size:               0kB
   Local Bus Ports:                 0
   Private SPM Size:                112kB
   Private Read Ports:              0
   Private Write Ports:             0
   Private Read Bus Width:          64
   Private Write Bus Width:         64
       Memory Reads:                0
       Memory Writes:               0
   ========= Power Analysis ======================
   FU Leakage Power:                1.592023 mW 
   FU Dynamic Power:                9.658254 mW 
   FU Total Power:                  11.250277 mW 

   Registers Leakage Power:          0.021654 mW 
   Registers Dynamic Power:          3.085961 mW 
       Register Reads (Bits):        2049133
       Register Writes (Bits):       2049168
   Registers Total Power:            3.107615 mW

   SPM Leakage Power:               0.061081 mW
   SPM Read Dynamic Power:          15.102444 mW
   SPM Write Dynamic Power:         10.618341 mW
   SPM Total Power:                 25.781867 mW

   SPM Energy Per Read Access:      0.142059 nJ
   SPM Energy Per Write Access:     0.255513 nJ

   Cache Leakage Power:             0.000000 mW
   Cache Read Dynamic Power:        0.000000 mW
   Cache Write Dynamic Power:       0.000000 mW
   Cache Total Power:               0.000000 mW

   Accelerator Power:               14.357892 mW
   Accelerator Power (SPM):         40.139759 mW
   Accelerator Power (Cache):       14.357892 mW

   ========= Area Analysis =======================
   FU Area:                         169833.015625 um^2 (0.169833 mm^2)
   Register Area:                   1760.064941 um^2 (0.001760 mm^2)
   SPM Area:                        2165.394891 um^2 (0.002165 mm^2)
   Cache Area:                      0.000000 um^2 (0.000000 mm^2)

   Accelerator Area:                171593.078125 um^2 (0.171593 mm^2)
   Accelerator Area (SPM):          173758.473016 um^2 (0.173758 mm^2)
   Accelerator Area (Cache):        171593.078125 um^2 (0.171593 mm^2)

   ========= SPM Resizing  =======================
   SPM Optimized Leakage Power:     0.005964 mW
   SPM Opt Area:                    422.108128 um^2

6247577500: global: Timer #0 stopped at tick 6247577500. Duration: 1965625
6247591875: global: Number of accelerators running = 3
6247706875: global: Timer #0 started at tick 6247706875
6247971250: global: Timer #2 started at tick 6247971250
6248343125: global: Timer #2 stopped at tick 6248343125. Duration: 371875
6248571250: global: DAG ID = 1
6248583750: global: Node ID = 0
6248596875: global: Node deadline difference = -13929
6248609375: global: Predicted memory time / byte = 7.27596e-05 us/byte
6248621875: global: Predicted memory time = 1.22964 us
6248634375: global: Predicted memory time / byte = 7.27596e-05 us/byte
6248646875: global: Predicted memory time = 3.57628 us
6248659375: global: Predicted memory time / byte = 0.00038645 us/byte
6248671875: global: Predicted memory time = 6.531 us
6248684375: global: Predicted memory time / byte = 0 us/byte
6248696875: global: Predicted memory time = 0 us
6248709375: global: Predicted memory access size = 0
6248721875: global: Predicted memory access size = 16900
6248734375: global: Predicted memory access size = 0
6248746875: global: Predicted memory access size = 0
6248839375: global: Timer #6 started at tick 6248839375
6248910000: global: Timer #7 started at tick 6248910000
6249551000: system.acctest.grayscale0_dma: SRC:0x0000000027004224, DST:0x0000000025000020, LEN:49152
6249688125: global: Timer #7 stopped at tick 6249688125. Duration: 778125
6249711875: global: Timer #6 stopped at tick 6249711875. Duration: 872500
6249793125: global: Timer #0 stopped at tick 6249793125. Duration: 2086250
6249807500: global: Number of accelerators running = 3
6259355625: system.acctest.elem_matrix0_dma: Transfer completed in 12.024 us
6259440000: global: Timer #0 started at tick 6259440000
6259780625: global: Timer #1 started at tick 6259780625
6259902500: global: Timer #1 stopped at tick 6259902500. Duration: 121875
6260150625: global: Timer #6 started at tick 6260150625
6260240000: global: Timer #7 started at tick 6260240000
6260893000: system.acctest.elem_matrix0_dma: SRC:0x000000008227e600, DST:0x0000000024010020, LEN:65536
6261016875: global: Timer #7 stopped at tick 6261016875. Duration: 776875
6261034375: global: Timer #6 stopped at tick 6261034375. Duration: 883750
6261145625: global: Timer #0 stopped at tick 6261145625. Duration: 1705625
6261160000: global: Number of accelerators running = 3
6261715000: system.acctest.grayscale0_dma: Transfer completed in 12.164 us
6261796875: global: Timer #0 started at tick 6261796875
6262129375: global: Timer #1 started at tick 6262129375
6262312500: global: Timer #1 stopped at tick 6262312500. Duration: 183125
6262610000: global: Timer #6 started at tick 6262610000
6262649375: global: Timer #7 started at tick 6262649375
6263033750: global: Timer #7 stopped at tick 6263033750. Duration: 384375
6263087500: global: Timer #6 stopped at tick 6263087500. Duration: 477500
6263193750: global: Timer #0 stopped at tick 6263193750. Duration: 1396875
6263208125: global: Number of accelerators running = 3
6272824000: system.acctest.elem_matrix0_dma: Transfer completed in 11.931 us
6272908750: global: Timer #0 started at tick 6272908750
********************************************************************************
system.acctest.grayscale0.compute
   ========= Performance Analysis =============
   Setup Time:                      0.011971seconds
   Simulation Time:                 210.890072seconds
   System Clock:                    1.000000GHz
   Transistor Latency:              1ns
   Runtime:                         10263 cycles
   Runtime:                         10.263000 us
   Stalls:                          1 cycles
   Executed Nodes:                  10261 cycles

********************************************************************************
   ========= Performance Analysis =================
   Setup Time:                      11971029.000000ns
   Simulation Time:                 210890072455.000000ns
   System Clock:                    1.000000GHz
   Transistor Latency:              0ns
   Runtime:                         10263 cycles
   Runtime:                         0.000001 seconds
   Stalls:                          1 cycles
       Load Only:                   0 cycles
       Store Only:                  1 cycles
       Compute Only:                0 cycles
       Compute & Store:             0 cycles
       Load & Store:                0 cycles
       Load & Compute:              0 cycles
       Load & Compute & Store:      0 cycles
   Executed Nodes:                  10261 cycles
       Load Only:                   0 cycles
       Store Only:                  1 cycles
       Compute Only:                88 cycles
       Compute & Store:             344 cycles
       Load & Store:                0 cycles
       Load & Compute:              1981 cycles
       Load & Compute & Store:      7847 cycles

   ========= Runtime FU's ========= (Max | Avg) ===
   Counter FU's:                      24 | 0.199556
   Integer Add/Sub FU's:               0 | 0.000000
   Integer Mul/Div FU's:               8 | 0.199552
   Integer Shifter FU's:               0 | 0.000000
   Integer Bitwise FU's:               1 | 0.000097
   Floating Point Float Add/Sub:      49 | 0.114264
   Floating Point Double Add/Sub:      0 | 0.000000
   Floating Point Float Mul/Div:      42 | 0.114129
   Floating Point Double Mul/Div:      0 | 0.000000
   0 Cycle Compare FU's:               9 | 0.066626
   GEP Instruction FU's:              36 | 0.177452
   Type Conversion FU's:              76 | 0.401969

   ========= Static FU's ==========================
   Counter FU's:                    0
   Integer Add/Sub FU's:            0
   Integer Mul/Div FU's:            0
   Integer Shifter FU's:            0
   Integer Bitwise FU's:            0
   Floating Point Float Add/Sub:    0
   Floating Point Double Add/Sub:   0
   Floating Point Float Mul/Div:    0
   Floating Point Double Mul/Div:   0
   0 Cycle Compare FU's:            0
   GEP Instruction FU's:            0
   Type Conversion FU's:            0
   Other:                           0

   ========= Pipeline Register Usage =============
   Total Number of Registers:       235
   Max Register Usage Per Cycle:    90
   Avg Register Usage Per Cycle:    33.924291
   Avg Register Size (Bytes):       5.841147

   ========= Memory Configuration =================
   Cache Bus Ports:                 0
   Shared Cache Size:               0kB
   Local Bus Ports:                 0
   Private SPM Size:                176kB
   Private Read Ports:              0
   Private Write Ports:             0
   Private Read Bus Width:          64
   Private Write Bus Width:         64
       Memory Reads:                0
       Memory Writes:               0
   ========= Power Analysis ======================
   FU Leakage Power:                1.178269 mW 
   FU Dynamic Power:                0.617392 mW 
   FU Total Power:                  1.795662 mW 

   Registers Leakage Power:          0.014185 mW 
   Registers Dynamic Power:          0.101057 mW 
       Register Reads (Bits):        348165
       Register Writes (Bits):       348168
   Registers Total Power:            0.115242 mW

   SPM Leakage Power:               0.089881 mW
   SPM Read Dynamic Power:          10.232207 mW
   SPM Write Dynamic Power:         5.980668 mW
   SPM Total Power:                 16.302756 mW

   SPM Energy Per Read Access:      0.161778 nJ
   SPM Energy Per Write Access:     0.205661 nJ

   Cache Leakage Power:             0.000000 mW
   Cache Read Dynamic Power:        0.000000 mW
   Cache Write Dynamic Power:       0.000000 mW
   Cache Total Power:               0.000000 mW

   Accelerator Power:               1.910904 mW
   Accelerator Power (SPM):         18.213660 mW
   Accelerator Power (Cache):       1.910904 mW

   ========= Area Analysis =======================
   FU Area:                         143348.187500 um^2 (0.143348 mm^2)
   Register Area:                   1152.968140 um^2 (0.001153 mm^2)
   SPM Area:                        3573.642862 um^2 (0.003574 mm^2)
   Cache Area:                      0.000000 um^2 (0.000000 mm^2)

   Accelerator Area:                144501.156250 um^2 (0.144501 mm^2)
   Accelerator Area (SPM):          148074.799112 um^2 (0.148075 mm^2)
   Accelerator Area (Cache):        144501.156250 um^2 (0.144501 mm^2)

   ========= SPM Resizing  =======================
   SPM Optimized Leakage Power:     0.003633 mW
   SPM Opt Area:                    364.024374 um^2

6273243125: global: Timer #1 started at tick 6273243125
6273363750: global: Timer #1 stopped at tick 6273363750. Duration: 120625
6273658750: global: Timer #6 started at tick 6273658750
6273730625: global: Timer #7 started at tick 6273730625
6274748125: global: Timer #7 stopped at tick 6274748125. Duration: 1017500
6274798750: global: Timer #6 stopped at tick 6274798750. Duration: 1140000
6274889375: global: Timer #0 stopped at tick 6274889375. Duration: 1980625
6274903750: global: Number of accelerators running = 3
6275021250: global: Timer #0 started at tick 6275021250
6275328750: global: Timer #2 started at tick 6275328750
6275718750: global: Timer #2 stopped at tick 6275718750. Duration: 390000
6275950625: global: Timer #2 started at tick 6275950625
6276228750: global: Timer #2 stopped at tick 6276228750. Duration: 278125
6276363125: global: Timer #7 started at tick 6276363125
6277010875: system.acctest.grayscale0_dma: SRC:0x000000002500c020, DST:0x0000000082158d40, LEN:65536
6277163125: global: Timer #7 stopped at tick 6277163125. Duration: 800000
6277426250: global: Timer #0 stopped at tick 6277426250. Duration: 2405000
6277440625: global: Number of accelerators running = 3
6283384875: system.acctest.grayscale0_dma: Transfer completed in 6.374 us
6283468750: global: Timer #0 started at tick 6283468750
6283791875: global: Timer #1 started at tick 6283791875
6283933125: global: Timer #1 stopped at tick 6283933125. Duration: 141250
6284133125: global: DAG ID = 1
6284145625: global: Node ID = 1
6284172500: global: Node deadline difference = -13930
6284185000: global: Predicted memory time / byte = 0.000202078 us/byte
6284197500: global: Predicted memory time = 9.93252 us
6284210000: global: Predicted memory time / byte = 0.000202078 us/byte
6284222500: global: Predicted memory time = 13.2434 us
6284235000: global: Predicted memory time / byte = 0.000247335 us/byte
6284247500: global: Predicted memory time = 12.157 us
6284260000: global: Predicted memory time / byte = 9.70764e-05 us/byte
6284272500: global: Predicted memory time = 6.362 us
6284285000: global: Predicted memory access size = 0
6284297500: global: Predicted memory access size = 49152
6284310000: global: Predicted memory access size = 0
6284322500: global: Predicted memory access size = 65536
6284458750: global: Timer #0 stopped at tick 6284458750. Duration: 990000
6284473125: global: Number of accelerators running = 2
********************************************************************************
system.acctest.elem_matrix0.compute
   ========= Performance Analysis =============
   Setup Time:                      10.253774seconds
   Simulation Time:                 178.636415seconds
   System Clock:                    1.000000GHz
   Transistor Latency:              1ns
   Runtime:                         10932 cycles
   Runtime:                         10.932000 us
   Stalls:                          1 cycles
   Executed Nodes:                  10930 cycles

********************************************************************************
   ========= Performance Analysis =================
   Setup Time:                      10253773779.000000ns
   Simulation Time:                 178636415200.000000ns
   System Clock:                    1.000000GHz
   Transistor Latency:              0ns
   Runtime:                         10932 cycles
   Runtime:                         0.000001 seconds
   Stalls:                          1 cycles
       Load Only:                   0 cycles
       Store Only:                  1 cycles
       Compute Only:                0 cycles
       Compute & Store:             0 cycles
       Load & Store:                0 cycles
       Load & Compute:              0 cycles
       Load & Compute & Store:      0 cycles
   Executed Nodes:                  10930 cycles
       Load Only:                   0 cycles
       Store Only:                  4 cycles
       Compute Only:                1 cycles
       Compute & Store:             21 cycles
       Load & Store:                0 cycles
       Load & Compute:              6 cycles
       Load & Compute & Store:      10898 cycles

   ========= Runtime FU's ========= (Max | Avg) ===
   Counter FU's:                      32 | 0.046838
   Integer Add/Sub FU's:               0 | 0.000000
   Integer Mul/Div FU's:               0 | 0.000000
   Integer Shifter FU's:               0 | 0.000000
   Integer Bitwise FU's:               1 | 0.000091
   Floating Point Float Add/Sub:       0 | 0.000000
   Floating Point Double Add/Sub:      0 | 0.000000
   Floating Point Float Mul/Div:      34 | 0.044252
   Floating Point Double Mul/Div:      0 | 0.000000
   0 Cycle Compare FU's:             102 | 0.046945
   GEP Instruction FU's:              96 | 0.046835
   Type Conversion FU's:               7 | 0.006782

   ========= Static FU's ==========================
   Counter FU's:                    0
   Integer Add/Sub FU's:            0
   Integer Mul/Div FU's:            0
   Integer Shifter FU's:            0
   Integer Bitwise FU's:            0
   Floating Point Float Add/Sub:    0
   Floating Point Double Add/Sub:   0
   Floating Point Float Mul/Div:    0
   Floating Point Double Mul/Div:   0
   0 Cycle Compare FU's:            0
   GEP Instruction FU's:            0
   Type Conversion FU's:            0
   Other:                           0

   ========= Pipeline Register Usage =============
   Total Number of Registers:       5641
   Max Register Usage Per Cycle:    137
   Avg Register Usage Per Cycle:    12.130992
   Avg Register Size (Bytes):       5.980606

   ========= Memory Configuration =================
   Cache Bus Ports:                 0
   Shared Cache Size:               0kB
   Local Bus Ports:                 0
   Private SPM Size:                256kB
   Private Read Ports:              0
   Private Write Ports:             0
   Private Read Bus Width:          64
   Private Write Bus Width:         64
       Memory Reads:                0
       Memory Writes:               0
   ========= Power Analysis ======================
   FU Leakage Power:                0.045377 mW 
   FU Dynamic Power:                0.142576 mW 
   FU Total Power:                  0.187953 mW 

   Registers Leakage Power:          0.005281 mW 
   Registers Dynamic Power:          0.015326 mW 
       Register Reads (Bits):        132616
       Register Writes (Bits):       133658
   Registers Total Power:            0.020607 mW

   SPM Leakage Power:               0.104100 mW
   SPM Read Dynamic Power:          3.776796 mW
   SPM Write Dynamic Power:         2.457440 mW
   SPM Total Power:                 6.338336 mW

   SPM Energy Per Read Access:      0.170493 nJ
   SPM Energy Per Write Access:     0.218190 nJ

   Cache Leakage Power:             0.000000 mW
   Cache Read Dynamic Power:        0.000000 mW
   Cache Write Dynamic Power:       0.000000 mW
   Cache Total Power:               0.000000 mW

   Accelerator Power:               0.208559 mW
   Accelerator Power (SPM):         6.546896 mW
   Accelerator Power (Cache):       0.208559 mW

   ========= Area Analysis =======================
   FU Area:                         5472.068359 um^2 (0.005472 mm^2)
   Register Area:                   429.271088 um^2 (0.000429 mm^2)
   SPM Area:                        2177.365505 um^2 (0.002177 mm^2)
   Cache Area:                      0.000000 um^2 (0.000000 mm^2)

   Accelerator Area:                5901.339355 um^2 (0.005901 mm^2)
   Accelerator Area (SPM):          8078.704860 um^2 (0.008079 mm^2)
   Accelerator Area (Cache):        5901.339355 um^2 (0.005901 mm^2)

   ========= SPM Resizing  =======================
   SPM Optimized Leakage Power:     0.004248 mW
   SPM Opt Area:                    178.524902 um^2

6285643125: global: Timer #0 started at tick 6285643125
6285890625: global: Timer #2 started at tick 6285890625
6286261250: global: Timer #2 stopped at tick 6286261250. Duration: 370625
6286383750: global: Timer #7 started at tick 6286383750
6287020875: system.acctest.elem_matrix0_dma: SRC:0x0000000024030020, DST:0x000000008233e780, LEN:65536
6287148750: global: Timer #7 stopped at tick 6287148750. Duration: 765000
6287401875: global: Timer #0 stopped at tick 6287401875. Duration: 1758750
6287416250: global: Number of accelerators running = 2
6293359875: system.acctest.elem_matrix0_dma: Transfer completed in 6.339 us
6293435000: global: Timer #0 started at tick 6293435000
6293750000: global: Timer #1 started at tick 6293750000
6293890000: global: Timer #1 stopped at tick 6293890000. Duration: 140000
6294090000: global: DAG ID = 2
6294102500: global: Node ID = 5
6294125000: global: Node deadline difference = -3601
6294137500: global: Predicted memory time / byte = 0.000254646 us/byte
6294150000: global: Predicted memory time = 33.3769 us
6294162500: global: Predicted memory time / byte = 0.000254646 us/byte
6294175000: global: Predicted memory time = 16.6885 us
6294187500: global: Predicted memory time / byte = 0.000182785 us/byte
6294200000: global: Predicted memory time = 23.958 us
6294212500: global: Predicted memory time / byte = 9.64508e-05 us/byte
6294225000: global: Predicted memory time = 6.321 us
6294237500: global: Predicted memory access size = 0
6294250000: global: Predicted memory access size = 131072
6294262500: global: Predicted memory access size = 0
6294275000: global: Predicted memory access size = 65536
6294376250: global: Timer #6 started at tick 6294376250
6294476250: global: Timer #7 started at tick 6294476250
6295111625: system.acctest.elem_matrix0_dma: SRC:0x00000000822ee780, DST:0x0000000024000020, LEN:65536
6295243125: global: Timer #7 stopped at tick 6295243125. Duration: 766875
6295265625: global: Timer #6 stopped at tick 6295265625. Duration: 889375
6295337500: global: Timer #0 stopped at tick 6295337500. Duration: 1902500
6295351875: global: Number of accelerators running = 2
6307133625: system.acctest.elem_matrix0_dma: Transfer completed in 12.022 us
6307216250: global: Timer #0 started at tick 6307216250
6307552500: global: Timer #1 started at tick 6307552500
6307676250: global: Timer #1 stopped at tick 6307676250. Duration: 123750
6307903750: global: Timer #6 started at tick 6307903750
6307988750: global: Timer #7 started at tick 6307988750
6308624500: system.acctest.elem_matrix0_dma: SRC:0x000000008229e600, DST:0x0000000024010020, LEN:65536
6308747500: global: Timer #7 stopped at tick 6308747500. Duration: 758750
6308773125: global: Timer #6 stopped at tick 6308773125. Duration: 869375
6308871875: global: Timer #0 stopped at tick 6308871875. Duration: 1655625
6308886250: global: Number of accelerators running = 2
6320604500: system.acctest.elem_matrix0_dma: Transfer completed in 11.98 us
6320686875: global: Timer #0 started at tick 6320686875
6321021250: global: Timer #1 started at tick 6321021250
6321153125: global: Timer #1 stopped at tick 6321153125. Duration: 131875
6321463125: global: Timer #6 started at tick 6321463125
6321526250: global: Timer #7 started at tick 6321526250
6322543125: global: Timer #7 stopped at tick 6322543125. Duration: 1016875
6322571250: global: Timer #6 stopped at tick 6322571250. Duration: 1108125
6322662500: global: Timer #0 stopped at tick 6322662500. Duration: 1975625
6322676875: global: Number of accelerators running = 2
********************************************************************************
system.acctest.elem_matrix0.compute
   ========= Performance Analysis =============
   Setup Time:                      6.765368seconds
   Simulation Time:                 166.587695seconds
   System Clock:                    1.000000GHz
   Transistor Latency:              1ns
   Runtime:                         10932 cycles
   Runtime:                         10.932000 us
   Stalls:                          1 cycles
   Executed Nodes:                  10930 cycles

********************************************************************************
   ========= Performance Analysis =================
   Setup Time:                      6765367557.000000ns
   Simulation Time:                 166587694678.000000ns
   System Clock:                    1.000000GHz
   Transistor Latency:              0ns
   Runtime:                         10932 cycles
   Runtime:                         0.000001 seconds
   Stalls:                          1 cycles
       Load Only:                   0 cycles
       Store Only:                  1 cycles
       Compute Only:                0 cycles
       Compute & Store:             0 cycles
       Load & Store:                0 cycles
       Load & Compute:              0 cycles
       Load & Compute & Store:      0 cycles
   Executed Nodes:                  10930 cycles
       Load Only:                   0 cycles
       Store Only:                  4 cycles
       Compute Only:                1 cycles
       Compute & Store:             21 cycles
       Load & Store:                0 cycles
       Load & Compute:              6 cycles
       Load & Compute & Store:      10898 cycles

   ========= Runtime FU's ========= (Max | Avg) ===
   Counter FU's:                      32 | 0.046838
   Integer Add/Sub FU's:               0 | 0.000000
   Integer Mul/Div FU's:               0 | 0.000000
   Integer Shifter FU's:               0 | 0.000000
   Integer Bitwise FU's:               1 | 0.000091
   Floating Point Float Add/Sub:       0 | 0.000000
   Floating Point Double Add/Sub:      0 | 0.000000
   Floating Point Float Mul/Div:      34 | 0.044252
   Floating Point Double Mul/Div:      0 | 0.000000
   0 Cycle Compare FU's:             102 | 0.046945
   GEP Instruction FU's:              96 | 0.046835
   Type Conversion FU's:               7 | 0.006782

   ========= Static FU's ==========================
   Counter FU's:                    0
   Integer Add/Sub FU's:            0
   Integer Mul/Div FU's:            0
   Integer Shifter FU's:            0
   Integer Bitwise FU's:            0
   Floating Point Float Add/Sub:    0
   Floating Point Double Add/Sub:   0
   Floating Point Float Mul/Div:    0
   Floating Point Double Mul/Div:   0
   0 Cycle Compare FU's:            0
   GEP Instruction FU's:            0
   Type Conversion FU's:            0
   Other:                           0

   ========= Pipeline Register Usage =============
   Total Number of Registers:       5641
   Max Register Usage Per Cycle:    137
   Avg Register Usage Per Cycle:    12.130992
   Avg Register Size (Bytes):       5.980606

   ========= Memory Configuration =================
   Cache Bus Ports:                 0
   Shared Cache Size:               0kB
   Local Bus Ports:                 0
   Private SPM Size:                256kB
   Private Read Ports:              0
   Private Write Ports:             0
   Private Read Bus Width:          64
   Private Write Bus Width:         64
       Memory Reads:                0
       Memory Writes:               0
   ========= Power Analysis ======================
   FU Leakage Power:                0.045377 mW 
   FU Dynamic Power:                0.142576 mW 
   FU Total Power:                  0.187953 mW 

   Registers Leakage Power:          0.005281 mW 
   Registers Dynamic Power:          0.015326 mW 
       Register Reads (Bits):        132616
       Register Writes (Bits):       133658
   Registers Total Power:            0.020607 mW

   SPM Leakage Power:               0.104100 mW
   SPM Read Dynamic Power:          4.579344 mW
   SPM Write Dynamic Power:         2.880682 mW
   SPM Total Power:                 7.564127 mW

   SPM Energy Per Read Access:      0.170493 nJ
   SPM Energy Per Write Access:     0.218190 nJ

   Cache Leakage Power:             0.000000 mW
   Cache Read Dynamic Power:        0.000000 mW
   Cache Write Dynamic Power:       0.000000 mW
   Cache Total Power:               0.000000 mW

   Accelerator Power:               0.208559 mW
   Accelerator Power (SPM):         7.772686 mW
   Accelerator Power (Cache):       0.208559 mW

   ========= Area Analysis =======================
   FU Area:                         5472.068359 um^2 (0.005472 mm^2)
   Register Area:                   429.271088 um^2 (0.000429 mm^2)
   SPM Area:                        2177.365505 um^2 (0.002177 mm^2)
   Cache Area:                      0.000000 um^2 (0.000000 mm^2)

   Accelerator Area:                5901.339355 um^2 (0.005901 mm^2)
   Accelerator Area (SPM):          8078.704860 um^2 (0.008079 mm^2)
   Accelerator Area (Cache):        5901.339355 um^2 (0.005901 mm^2)

   ========= SPM Resizing  =======================
   SPM Optimized Leakage Power:     0.004248 mW
   SPM Opt Area:                    178.524902 um^2

6333429375: global: Timer #0 started at tick 6333429375
6333666875: global: Timer #2 started at tick 6333666875
6334019375: global: Timer #2 stopped at tick 6334019375. Duration: 352500
6334129375: global: Timer #7 started at tick 6334129375
6334765875: system.acctest.elem_matrix0_dma: SRC:0x0000000024020020, DST:0x000000008234e780, LEN:65536
6334893750: global: Timer #7 stopped at tick 6334893750. Duration: 764375
6335133750: global: Timer #0 stopped at tick 6335133750. Duration: 1704375
6335148125: global: Number of accelerators running = 2
6341151875: system.acctest.elem_matrix0_dma: Transfer completed in 6.386 us
6341227500: global: Timer #0 started at tick 6341227500
6341542500: global: Timer #1 started at tick 6341542500
6341670000: global: Timer #1 stopped at tick 6341670000. Duration: 127500
6341870000: global: DAG ID = 2
6341882500: global: Node ID = 8
6341911875: global: Node deadline difference = -3554
6341924375: global: Predicted memory time / byte = 0.000254646 us/byte
6341936875: global: Predicted memory time = 33.3769 us
6341949375: global: Predicted memory time / byte = 0.000254646 us/byte
6341961875: global: Predicted memory time = 16.6885 us
6341974375: global: Predicted memory time / byte = 0.000183121 us/byte
6341986875: global: Predicted memory time = 24.002 us
6341999375: global: Predicted memory time / byte = 9.7168e-05 us/byte
6342011875: global: Predicted memory time = 6.368 us
6342024375: global: Predicted memory access size = 0
6342036875: global: Predicted memory access size = 131072
6342049375: global: Predicted memory access size = 0
6342061875: global: Predicted memory access size = 65536
6342158750: global: Timer #6 started at tick 6342158750
6342253750: global: Timer #7 started at tick 6342253750
6342884500: system.acctest.elem_matrix0_dma: SRC:0x00000000822fe780, DST:0x0000000024000020, LEN:65536
6343007500: global: Timer #7 stopped at tick 6343007500. Duration: 753750
6343022500: global: Timer #6 stopped at tick 6343022500. Duration: 863750
6343101875: global: Timer #0 stopped at tick 6343101875. Duration: 1874375
6343116250: global: Number of accelerators running = 2
6354856500: system.acctest.elem_matrix0_dma: Transfer completed in 11.972 us
6354932500: global: Timer #0 started at tick 6354932500
6355263125: global: Timer #1 started at tick 6355263125
6355386875: global: Timer #1 stopped at tick 6355386875. Duration: 123750
6355610000: global: Timer #6 started at tick 6355610000
6355674375: global: Timer #7 started at tick 6355674375
6356306625: system.acctest.elem_matrix0_dma: SRC:0x000000008226e600, DST:0x0000000024010020, LEN:65536
6356430000: global: Timer #7 stopped at tick 6356430000. Duration: 755625
6356455625: global: Timer #6 stopped at tick 6356455625. Duration: 845625
6356555625: global: Timer #0 stopped at tick 6356555625. Duration: 1623125
6356570000: global: Number of accelerators running = 2
6368324625: system.acctest.elem_matrix0_dma: Transfer completed in 12.018 us
6368400000: global: Timer #0 started at tick 6368400000
6368725000: global: Timer #1 started at tick 6368725000
6368848750: global: Timer #1 stopped at tick 6368848750. Duration: 123750
6369135000: global: Timer #6 started at tick 6369135000
6369192500: global: Timer #7 started at tick 6369192500
6370203125: global: Timer #7 stopped at tick 6370203125. Duration: 1010625
6370231250: global: Timer #6 stopped at tick 6370231250. Duration: 1096250
6370330000: global: Timer #0 stopped at tick 6370330000. Duration: 1930000
6370344375: global: Number of accelerators running = 2
********************************************************************************
system.acctest.elem_matrix0.compute
   ========= Performance Analysis =============
   Setup Time:                      6.100010seconds
   Simulation Time:                 153.736099seconds
   System Clock:                    1.000000GHz
   Transistor Latency:              1ns
   Runtime:                         10932 cycles
   Runtime:                         10.932000 us
   Stalls:                          0 cycles
   Executed Nodes:                  10931 cycles

********************************************************************************
   ========= Performance Analysis =================
   Setup Time:                      6100010076.000000ns
   Simulation Time:                 153736098770.000000ns
   System Clock:                    1.000000GHz
   Transistor Latency:              0ns
   Runtime:                         10932 cycles
   Runtime:                         0.000001 seconds
   Stalls:                          0 cycles
       Load Only:                   0 cycles
       Store Only:                  0 cycles
       Compute Only:                0 cycles
       Compute & Store:             0 cycles
       Load & Store:                0 cycles
       Load & Compute:              0 cycles
       Load & Compute & Store:      0 cycles
   Executed Nodes:                  10931 cycles
[...]
   Floating Point Float Add/Sub:    0
   Floating Point Double Add/Sub:   0
   Floating Point Float Mul/Div:    0
   Floating Point Double Mul/Div:   0
   0 Cycle Compare FU's:            0
   GEP Instruction FU's:            0
   Type Conversion FU's:            0
   Other:                           0

   ========= Pipeline Register Usage =============
   Total Number of Registers:       5641
   Max Register Usage Per Cycle:    138
   Avg Register Usage Per Cycle:    12.130992
   Avg Register Size (Bytes):       5.980606

   ========= Memory Configuration =================
   Cache Bus Ports:                 0
   Shared Cache Size:               0kB
   Local Bus Ports:                 0
   Private SPM Size:                256kB
   Private Read Ports:              0
   Private Write Ports:             0
   Private Read Bus Width:          64
   Private Write Bus Width:         64
       Memory Reads:                0
       Memory Writes:               0
   ========= Power Analysis ======================
   FU Leakage Power:                0.519269 mW 
   FU Dynamic Power:                0.154621 mW 
   FU Total Power:                  0.673890 mW 

   Registers Leakage Power:          0.005281 mW 
   Registers Dynamic Power:          0.015326 mW 
       Register Reads (Bits):        132616
       Register Writes (Bits):       133658
   Registers Total Power:            0.020607 mW

   SPM Leakage Power:               0.104100 mW
   SPM Read Dynamic Power:          25.407676 mW
   SPM Write Dynamic Power:         20.063116 mW
   SPM Total Power:                 45.574892 mW

   SPM Energy Per Read Access:      0.170493 nJ
   SPM Energy Per Write Access:     0.218190 nJ

   Cache Leakage Power:             0.000000 mW
   Cache Read Dynamic Power:        0.000000 mW
   Cache Write Dynamic Power:       0.000000 mW
   Cache Total Power:               0.000000 mW

   Accelerator Power:               0.694497 mW
   Accelerator Power (SPM):         46.269389 mW
   Accelerator Power (Cache):       0.694497 mW

   ========= Area Analysis =======================
   FU Area:                         70212.562500 um^2 (0.070213 mm^2)
   Register Area:                   429.271088 um^2 (0.000429 mm^2)
   SPM Area:                        2177.365505 um^2 (0.002177 mm^2)
   Cache Area:                      0.000000 um^2 (0.000000 mm^2)

   Accelerator Area:                70641.835938 um^2 (0.070642 mm^2)
   Accelerator Area (SPM):          72819.201442 um^2 (0.072819 mm^2)
   Accelerator Area (Cache):        70641.835938 um^2 (0.070642 mm^2)

   ========= SPM Resizing  =======================
   SPM Optimized Leakage Power:     0.004248 mW
   SPM Opt Area:                    178.524902 um^2

16603189375: global: Timer #0 started at tick 16603189375
16603603125: global: Timer #2 started at tick 16603603125
16603848750: global: Timer #2 stopped at tick 16603848750. Duration: 245625
16604066250: global: DAG ID = 1
16604078750: global: Node ID = 13
16604091875: global: Node deadline difference = -6032
16604104375: global: Predicted memory time / byte = 0.000144038 us/byte
16604116875: global: Predicted memory time = 18.8794 us
16604129375: global: Predicted memory time / byte = 0.000144038 us/byte
16604141875: global: Predicted memory time = 9.4397 us
16604154375: global: Predicted memory time / byte = 0.000182968 us/byte
16604166875: global: Predicted memory time = 11.991 us
16604179375: global: Predicted memory time / byte = 0 us/byte
16604191875: global: Predicted memory time = 0 us
16604204375: global: Predicted memory access size = 0
16604216875: global: Predicted memory access size = 65536
16604229375: global: Predicted memory access size = 0
16604241875: global: Predicted memory access size = 0
16604316875: global: Timer #6 started at tick 16604316875
16604499375: global: Timer #7 started at tick 16604499375
16605140875: system.acctest.elem_matrix0_dma: SRC:0x000000008223a480, DST:0x0000000024010020, LEN:65536
16605265000: global: Timer #7 stopped at tick 16605265000. Duration: 765625
16605280000: global: Timer #6 stopped at tick 16605280000. Duration: 963125
16605356250: global: Timer #0 stopped at tick 16605356250. Duration: 2166875
16605370625: global: Number of accelerators running = 1
16617014875: system.acctest.elem_matrix0_dma: Transfer completed in 11.874 us
16617091250: global: Timer #0 started at tick 16617091250
16617415625: global: Timer #1 started at tick 16617415625
16617531875: global: Timer #1 stopped at tick 16617531875. Duration: 116250
16617755000: global: Timer #6 started at tick 16617755000
16617829375: global: Timer #7 started at tick 16617829375
16618825000: global: Timer #7 stopped at tick 16618825000. Duration: 995625
16618863750: global: Timer #6 stopped at tick 16618863750. Duration: 1108750
16618964375: global: Timer #0 stopped at tick 16618964375. Duration: 1873125
16618978750: global: Number of accelerators running = 1
********************************************************************************
system.acctest.elem_matrix0.compute
   ========= Performance Analysis =============
   Setup Time:                      7.656928seconds
   Simulation Time:                 130.690028seconds
   System Clock:                    1.000000GHz
   Transistor Latency:              1ns
   Runtime:                         10932 cycles
   Runtime:                         10.932000 us
   Stalls:                          0 cycles
   Executed Nodes:                  10931 cycles

********************************************************************************
   ========= Performance Analysis =================
   Setup Time:                      7656927534.000000ns
   Simulation Time:                 130690027773.000000ns
   System Clock:                    1.000000GHz
   Transistor Latency:              0ns
   Runtime:                         10932 cycles
   Runtime:                         0.000001 seconds
   Stalls:                          0 cycles
       Load Only:                   0 cycles
       Store Only:                  0 cycles
       Compute Only:                0 cycles
       Compute & Store:             0 cycles
       Load & Store:                0 cycles
       Load & Compute:              0 cycles
       Load & Compute & Store:      0 cycles
   Executed Nodes:                  10931 cycles
       Load Only:                   0 cycles
       Store Only:                  5 cycles
       Compute Only:                1 cycles
       Compute & Store:             21 cycles
       Load & Store:                0 cycles
       Load & Compute:              7 cycles
       Load & Compute & Store:      10897 cycles

   ========= Runtime FU's ========= (Max | Avg) ===
   Counter FU's:                      32 | 0.046838
   Integer Add/Sub FU's:               0 | 0.000000
   Integer Mul/Div FU's:               0 | 0.000000
   Integer Shifter FU's:               0 | 0.000000
   Integer Bitwise FU's:               1 | 0.000091
   Floating Point Float Add/Sub:      34 | 0.044252
   Floating Point Double Add/Sub:      0 | 0.000000
   Floating Point Float Mul/Div:       0 | 0.000000
   Floating Point Double Mul/Div:      0 | 0.000000
   0 Cycle Compare FU's:             102 | 0.046974
   GEP Instruction FU's:              96 | 0.046835
   Type Conversion FU's:               7 | 0.006782

   ========= Static FU's ==========================
   Counter FU's:                    0
   Integer Add/Sub FU's:            0
   Integer Mul/Div FU's:            0
   Integer Shifter FU's:            0
   Integer Bitwise FU's:            0
   Floating Point Float Add/Sub:    0
   Floating Point Double Add/Sub:   0
   Floating Point Float Mul/Div:    0
   Floating Point Double Mul/Div:   0
   0 Cycle Compare FU's:            0
   GEP Instruction FU's:            0
   Type Conversion FU's:            0
   Other:                           0

   ========= Pipeline Register Usage =============
   Total Number of Registers:       5641
   Max Register Usage Per Cycle:    138
   Avg Register Usage Per Cycle:    12.130992
   Avg Register Size (Bytes):       5.980606

   ========= Memory Configuration =================
   Cache Bus Ports:                 0
   Shared Cache Size:               0kB
   Local Bus Ports:                 0
   Private SPM Size:                256kB
   Private Read Ports:              0
   Private Write Ports:             0
   Private Read Bus Width:          64
   Private Write Bus Width:         64
       Memory Reads:                0
       Memory Writes:               0
   ========= Power Analysis ======================
   FU Leakage Power:                0.519269 mW 
   FU Dynamic Power:                0.154621 mW 
   FU Total Power:                  0.673890 mW 

   Registers Leakage Power:          0.005281 mW 
   Registers Dynamic Power:          0.015326 mW 
       Register Reads (Bits):        132616
       Register Writes (Bits):       133658
   Registers Total Power:            0.020607 mW

   SPM Leakage Power:               0.104100 mW
   SPM Read Dynamic Power:          25.507843 mW
   SPM Write Dynamic Power:         20.114600 mW
   SPM Total Power:                 45.726543 mW

   SPM Energy Per Read Access:      0.170493 nJ
   SPM Energy Per Write Access:     0.218190 nJ

   Cache Leakage Power:             0.000000 mW
   Cache Read Dynamic Power:        0.000000 mW
   Cache Write Dynamic Power:       0.000000 mW
   Cache Total Power:               0.000000 mW

   Accelerator Power:               0.694497 mW
   Accelerator Power (SPM):         46.421039 mW
   Accelerator Power (Cache):       0.694497 mW

   ========= Area Analysis =======================
   FU Area:                         70212.562500 um^2 (0.070213 mm^2)
   Register Area:                   429.271088 um^2 (0.000429 mm^2)
   SPM Area:                        2177.365505 um^2 (0.002177 mm^2)
   Cache Area:                      0.000000 um^2 (0.000000 mm^2)

   Accelerator Area:                70641.835938 um^2 (0.070642 mm^2)
   Accelerator Area (SPM):          72819.201442 um^2 (0.072819 mm^2)
   Accelerator Area (Cache):        70641.835938 um^2 (0.070642 mm^2)

   ========= SPM Resizing  =======================
   SPM Optimized Leakage Power:     0.004248 mW
   SPM Opt Area:                    178.524902 um^2

16629722500: global: Timer #0 started at tick 16629722500
16630073125: global: Timer #2 started at tick 16630073125
16630391875: global: Timer #2 stopped at tick 16630391875. Duration: 318750
16630630000: global: DAG ID = 1
16630642500: global: Node ID = 16
16630655625: global: Node deadline difference = -6063
16630668125: global: Predicted memory time / byte = 0.000153771 us/byte
16630680625: global: Predicted memory time = 20.155 us
16630693125: global: Predicted memory time / byte = 0.000153771 us/byte
16630705625: global: Predicted memory time = 10.0775 us
16630718125: global: Predicted memory time / byte = 0.000181061 us/byte
16630730625: global: Predicted memory time = 11.866 us
16630743125: global: Predicted memory time / byte = 0 us/byte
16630755625: global: Predicted memory time = 0 us
16630768125: global: Predicted memory access size = 0
16630780625: global: Predicted memory access size = 65536
16630793125: global: Predicted memory access size = 0
16630805625: global: Predicted memory access size = 0
16630980625: global: Timer #6 started at tick 16630980625
16631113125: global: Timer #7 started at tick 16631113125
16631788750: system.acctest.harris_non_max0_dma: SRC:0x0000000024030020, DST:0x0000000026000020, LEN:65536
16631973750: global: Timer #7 stopped at tick 16631973750. Duration: 860625
16631996250: global: Timer #6 stopped at tick 16631996250. Duration: 1015625
16632075625: global: Timer #0 stopped at tick 16632075625. Duration: 2353125
16632090000: global: Number of accelerators running = 1
16642049750: system.acctest.harris_non_max0_dma: Transfer completed in 10.261 us
16642145625: global: Timer #0 started at tick 16642145625
16642483750: global: Timer #1 started at tick 16642483750
16642600000: global: Timer #1 stopped at tick 16642600000. Duration: 116250
16642823125: global: Timer #6 started at tick 16642823125
16642926875: global: Timer #7 started at tick 16642926875
16643442500: global: Timer #7 stopped at tick 16643442500. Duration: 515625
16643495000: global: Timer #6 stopped at tick 16643495000. Duration: 671875
16643596250: global: Timer #0 stopped at tick 16643596250. Duration: 1450625
16643610625: global: Number of accelerators running = 1
********************************************************************************
system.acctest.harris_non_max0.compute
   ========= Performance Analysis =============
   Setup Time:                      0.004792seconds
   Simulation Time:                 2.173804seconds
   System Clock:                    1.000000GHz
   Transistor Latency:              1ns
   Runtime:                         105010 cycles
   Runtime:                         105.010000 us
   Stalls:                          0 cycles
   Executed Nodes:                  105009 cycles

********************************************************************************
   ========= Performance Analysis =================
   Setup Time:                      4791874.000000ns
   Simulation Time:                 2173803670.000000ns
   System Clock:                    1.000000GHz
   Transistor Latency:              0ns
   Runtime:                         105010 cycles
   Runtime:                         0.000011 seconds
   Stalls:                          0 cycles
       Load Only:                   0 cycles
       Store Only:                  0 cycles
       Compute Only:                0 cycles
       Compute & Store:             0 cycles
       Load & Store:                0 cycles
       Load & Compute:              0 cycles
       Load & Compute & Store:      0 cycles
   Executed Nodes:                  105009 cycles
       Load Only:                   0 cycles
       Store Only:                  0 cycles
       Compute Only:                72241 cycles
       Compute & Store:             16384 cycles
       Load & Store:                0 cycles
       Load & Compute:              16384 cycles
       Load & Compute & Store:      0 cycles

   ========= Runtime FU's ========= (Max | Avg) ===
   Counter FU's:                       2 | 0.167889
   Integer Add/Sub FU's:               2 | 0.261670
   Integer Mul/Div FU's:               0 | 0.000000
   Integer Shifter FU's:               3 | 0.018017
   Integer Bitwise FU's:               1 | 0.472964
   Floating Point Float Add/Sub:       0 | 0.000000
   Floating Point Double Add/Sub:      0 | 0.000000
   Floating Point Float Mul/Div:       0 | 0.000000
   Floating Point Double Mul/Div:      0 | 0.000000
   0 Cycle Compare FU's:              26 | 0.199329
   GEP Instruction FU's:               3 | 0.208571
   Type Conversion FU's:              14 | 0.062158

   ========= Static FU's ==========================
   Counter FU's:                    0
   Integer Add/Sub FU's:            0
   Integer Mul/Div FU's:            0
   Integer Shifter FU's:            0
   Integer Bitwise FU's:            0
   Floating Point Float Add/Sub:    0
   Floating Point Double Add/Sub:   0
   Floating Point Float Mul/Div:    0
   Floating Point Double Mul/Div:   0
   0 Cycle Compare FU's:            0
   GEP Instruction FU's:            0
   Type Conversion FU's:            0
   Other:                           0

   ========= Pipeline Register Usage =============
   Total Number of Registers:       146
   Max Register Usage Per Cycle:    20
   Avg Register Usage Per Cycle:    5.029864
   Avg Register Size (Bytes):       5.546762

   ========= Memory Configuration =================
   Cache Bus Ports:                 0
   Shared Cache Size:               0kB
   Local Bus Ports:                 0
   Private SPM Size:                192kB
   Private Read Ports:              0
   Private Write Ports:             0
   Private Read Bus Width:          64
   Private Write Bus Width:         64
       Memory Reads:                0
       Memory Writes:               0
   ========= Power Analysis ======================
   FU Leakage Power:                0.010458 mW 
   FU Dynamic Power:                2.202634 mW 
   FU Total Power:                  2.213092 mW 

   Registers Leakage Power:          0.002041 mW 
   Registers Dynamic Power:          0.236415 mW 
       Register Reads (Bits):        528188
       Register Writes (Bits):       578368
   Registers Total Power:            0.238456 mW

   SPM Leakage Power:               0.068382 mW
   SPM Read Dynamic Power:          0.522209 mW
   SPM Write Dynamic Power:         0.561696 mW
   SPM Total Power:                 1.152287 mW

   SPM Energy Per Read Access:      0.108255 nJ
   SPM Energy Per Write Access:     0.137710 nJ

   Cache Leakage Power:             0.000000 mW
   Cache Read Dynamic Power:        0.000000 mW
   Cache Write Dynamic Power:       0.000000 mW
   Cache Total Power:               0.000000 mW

   Accelerator Power:               2.451548 mW
   Accelerator Power (SPM):         3.603836 mW
   Accelerator Power (Cache):       2.451548 mW

   ========= Area Analysis =======================
   FU Area:                         799.308228 um^2 (0.000799 mm^2)
   Register Area:                   165.887924 um^2 (0.000166 mm^2)
   SPM Area:                        1011.904012 um^2 (0.001012 mm^2)
   Cache Area:                      0.000000 um^2 (0.000000 mm^2)

   Accelerator Area:                965.196167 um^2 (0.000965 mm^2)
   Accelerator Area (SPM):          1977.100179 um^2 (0.001977 mm^2)
   Accelerator Area (Cache):        965.196167 um^2 (0.000965 mm^2)

   ========= SPM Resizing  =======================
   SPM Optimized Leakage Power:     0.001770 mW
   SPM Opt Area:                    77.453784 um^2

16748407500: global: Timer #0 started at tick 16748407500
16748691250: global: Timer #7 started at tick 16748691250
16749335875: system.acctest.harris_non_max0_dma: SRC:0x0000000026020020, DST:0x000000008225a600, LEN:16384
16749488125: global: Timer #7 stopped at tick 16749488125. Duration: 796875
16749769375: global: Timer #0 stopped at tick 16749769375. Duration: 1361875
16749783750: global: Number of accelerators running = 1
16750967875: system.acctest.harris_non_max0_dma: Transfer completed in 1.632 us
16751044375: global: Timer #0 started at tick 16751044375
16751378125: global: Timer #1 started at tick 16751378125
16751510625: global: Timer #1 stopped at tick 16751510625. Duration: 132500
16751710000: global: DAG ID = 1
16751722500: global: Node ID = 17
16751746250: global: DAG execution time = 10600
16751759375: global: DAG deadline difference = -6067
16751776875: global: Node deadline difference = -6067
16751789375: global: Predicted memory time / byte = 0.000160593 us/byte
16751801875: global: Predicted memory time = 10.5246 us
16751814375: global: Predicted memory time / byte = 0.000160593 us/byte
16751826875: global: Predicted memory time = 2.63116 us
16751839375: global: Predicted memory time / byte = 0.000156021 us/byte
16751851875: global: Predicted memory time = 10.225 us
16751864375: global: Predicted memory time / byte = 9.88159e-05 us/byte
16751876875: global: Predicted memory time = 1.619 us
16751889375: global: Predicted memory access size = 0
16751901875: global: Predicted memory access size = 65536
16751914375: global: Predicted memory access size = 0
16751926875: global: Predicted memory access size = 16384
16752033750: global: Timer #0 stopped at tick 16752033750. Duration: 989375
16752048125: global: Number of accelerators running = 0
16752128125: global: Number of forwards = 52
16752289375: global: Number of colocations = 36
16752308125: global: Number of DAG deadlines met = 3
16752326875: global: Number of node deadlines met = 174
16752360625: global: Total predicted compute time = 11155 us
Exiting @ tick 16752505000 because m5_exit instruction encountered
