
---------- Begin Simulation Statistics ----------
final_tick                                82376599375                       # Number of ticks from beginning of simulation (restored from checkpoints and never reset)
host_inst_rate                                     98                       # Simulator instruction rate (inst/s)
host_mem_usage                               10106356                       # Number of bytes of host memory used
host_op_rate                                      101                       # Simulator op (including micro ops) rate (op/s)
host_seconds                                 24319.03                       # Real time elapsed on the host
host_tick_rate                                3212458                       # Simulator tick rate (ticks/s)
sim_freq                                 1000000000000                       # Frequency of simulated ticks
sim_insts                                     2383593                       # Number of instructions simulated
sim_ops                                       2460921                       # Number of ops (including micro ops) simulated
sim_seconds                                  0.078124                       # Number of seconds simulated
sim_ticks                                 78123851875                       # Number of ticks simulated
system.acctest.coherency_bus.snoop_filter.hit_multi_requests            0                       # Number of requests hitting in the snoop filter with multiple (>1) holders of the requested data.
system.acctest.coherency_bus.snoop_filter.hit_multi_snoops            0                       # Number of snoops hitting in the snoop filter with multiple (>1) holders of the requested data.
system.acctest.coherency_bus.snoop_filter.hit_single_requests            0                       # Number of requests hitting in the snoop filter with a single holder of the requested data.
system.acctest.coherency_bus.snoop_filter.hit_single_snoops            0                       # Number of snoops hitting in the snoop filter with a single holder of the requested data.
system.acctest.coherency_bus.snoop_filter.tot_requests            0                       # Total number of requests made to the snoop filter.
system.acctest.coherency_bus.snoop_filter.tot_snoops            0                       # Total number of snoops made to the snoop filter.
system.cf0.dma_read_bytes                           0                       # Number of bytes transfered via DMA reads (not PRD).
system.cf0.dma_read_full_pages                      0                       # Number of full page size DMA reads (not PRD).
system.cf0.dma_read_txs                             0                       # Number of DMA read transactions (not PRD).
system.cf0.dma_write_bytes                          0                       # Number of bytes transfered via DMA writes.
system.cf0.dma_write_full_pages                     0                       # Number of full page size DMA writes.
system.cf0.dma_write_txs                            0                       # Number of DMA write transactions.
system.cpu.branchPred.BTBCorrect                    0                       # Number of correct BTB predictions (this stat may not work properly.
system.cpu.branchPred.BTBHitPct             63.604818                       # BTB Hit Percentage
system.cpu.branchPred.BTBHits                   28411                       # Number of BTB hits
system.cpu.branchPred.BTBLookups                44668                       # Number of BTB lookups
system.cpu.branchPred.RASInCorrect                472                       # Number of incorrect RAS predictions.
system.cpu.branchPred.condIncorrect              4359                       # Number of conditional branches incorrect
system.cpu.branchPred.condPredicted             33781                       # Number of conditional branches predicted
system.cpu.branchPred.indirectHits               5258                       # Number of indirect target hits.
system.cpu.branchPred.indirectLookups            6651                       # Number of indirect predictor lookups.
system.cpu.branchPred.indirectMisses             1393                       # Number of indirect misses.
system.cpu.branchPred.lookups                   62231                       # Number of BP lookups
system.cpu.branchPred.usedRAS                   10665                       # Number of times the RAS was used to get a target.
system.cpu.branchPredindirectMispredicted         1201                       # Number of mispredicted indirect branches.
system.cpu.committedInsts                      329836                       # Number of instructions committed
system.cpu.committedOps                        374703                       # Number of ops (including micro ops) committed
system.cpu.cpi                               4.351038                       # CPI: cycles per instruction
system.cpu.discardedOps                         12455                       # Number of ops (including micro ops) which were discarded before commit
system.cpu.dtb.accesses                             0                       # DTB accesses
system.cpu.dtb.align_faults                         0                       # Number of TLB faults due to alignment restrictions
system.cpu.dtb.domain_faults                        0                       # Number of TLB faults due to domain restrictions
system.cpu.dtb.flush_entries                        0                       # Number of entries that have been flushed from TLB
system.cpu.dtb.flush_tlb                            0                       # Number of times complete TLB was flushed
system.cpu.dtb.flush_tlb_asid                       0                       # Number of times TLB was flushed by ASID
system.cpu.dtb.flush_tlb_mva                        0                       # Number of times TLB was flushed by MVA
system.cpu.dtb.flush_tlb_mva_asid                   0                       # Number of times TLB was flushed by MVA & ASID
system.cpu.dtb.hits                                 0                       # DTB hits
system.cpu.dtb.inst_accesses                        0                       # ITB inst accesses
system.cpu.dtb.inst_hits                            0                       # ITB inst hits
system.cpu.dtb.inst_misses                          0                       # ITB inst misses
system.cpu.dtb.misses                               0                       # DTB misses
system.cpu.dtb.perms_faults                         0                       # Number of TLB faults due to permissions restrictions
system.cpu.dtb.prefetch_faults                      0                       # Number of TLB faults due to prefetch
system.cpu.dtb.read_accesses                        0                       # DTB read accesses
system.cpu.dtb.read_hits                            0                       # DTB read hits
system.cpu.dtb.read_misses                          0                       # DTB read misses
system.cpu.dtb.stage2_mmu.stage2_tlb.accesses            0                       # DTB accesses
system.cpu.dtb.stage2_mmu.stage2_tlb.align_faults            0                       # Number of TLB faults due to alignment restrictions
system.cpu.dtb.stage2_mmu.stage2_tlb.domain_faults            0                       # Number of TLB faults due to domain restrictions
system.cpu.dtb.stage2_mmu.stage2_tlb.flush_entries            0                       # Number of entries that have been flushed from TLB
system.cpu.dtb.stage2_mmu.stage2_tlb.flush_tlb            0                       # Number of times complete TLB was flushed
system.cpu.dtb.stage2_mmu.stage2_tlb.flush_tlb_asid            0                       # Number of times TLB was flushed by ASID
system.cpu.dtb.stage2_mmu.stage2_tlb.flush_tlb_mva            0                       # Number of times TLB was flushed by MVA
system.cpu.dtb.stage2_mmu.stage2_tlb.flush_tlb_mva_asid            0                       # Number of times TLB was flushed by MVA & ASID
system.cpu.dtb.stage2_mmu.stage2_tlb.hits            0                       # DTB hits
system.cpu.dtb.stage2_mmu.stage2_tlb.inst_accesses            0                       # ITB inst accesses
system.cpu.dtb.stage2_mmu.stage2_tlb.inst_hits            0                       # ITB inst hits
system.cpu.dtb.stage2_mmu.stage2_tlb.inst_misses            0                       # ITB inst misses
system.cpu.dtb.stage2_mmu.stage2_tlb.misses            0                       # DTB misses
system.cpu.dtb.stage2_mmu.stage2_tlb.perms_faults            0                       # Number of TLB faults due to permissions restrictions
system.cpu.dtb.stage2_mmu.stage2_tlb.prefetch_faults            0                       # Number of TLB faults due to prefetch
system.cpu.dtb.stage2_mmu.stage2_tlb.read_accesses            0                       # DTB read accesses
system.cpu.dtb.stage2_mmu.stage2_tlb.read_hits            0                       # DTB read hits
system.cpu.dtb.stage2_mmu.stage2_tlb.read_misses            0                       # DTB read misses
system.cpu.dtb.stage2_mmu.stage2_tlb.walker.walkRequestOrigin_Requested::Data            0                       # Table walker requests started/completed, data/inst
system.cpu.dtb.stage2_mmu.stage2_tlb.walker.walkRequestOrigin_Requested::Inst            0                       # Table walker requests started/completed, data/inst
system.cpu.dtb.stage2_mmu.stage2_tlb.walker.walkRequestOrigin_Requested::total            0                       # Table walker requests started/completed, data/inst
system.cpu.dtb.stage2_mmu.stage2_tlb.walker.walkRequestOrigin_Completed::Data            0                       # Table walker requests started/completed, data/inst
system.cpu.dtb.stage2_mmu.stage2_tlb.walker.walkRequestOrigin_Completed::Inst            0                       # Table walker requests started/completed, data/inst
system.cpu.dtb.stage2_mmu.stage2_tlb.walker.walkRequestOrigin_Completed::total            0                       # Table walker requests started/completed, data/inst
system.cpu.dtb.stage2_mmu.stage2_tlb.walker.walkRequestOrigin::total            0                       # Table walker requests started/completed, data/inst
system.cpu.dtb.stage2_mmu.stage2_tlb.walker.walks            0                       # Table walker walks requested
system.cpu.dtb.stage2_mmu.stage2_tlb.write_accesses            0                       # DTB write accesses
system.cpu.dtb.stage2_mmu.stage2_tlb.write_hits            0                       # DTB write hits
system.cpu.dtb.stage2_mmu.stage2_tlb.write_misses            0                       # DTB write misses
system.cpu.dtb.walker.walkRequestOrigin_Requested::Data            0                       # Table walker requests started/completed, data/inst
system.cpu.dtb.walker.walkRequestOrigin_Requested::Inst            0                       # Table walker requests started/completed, data/inst
system.cpu.dtb.walker.walkRequestOrigin_Requested::total            0                       # Table walker requests started/completed, data/inst
system.cpu.dtb.walker.walkRequestOrigin_Completed::Data            0                       # Table walker requests started/completed, data/inst
system.cpu.dtb.walker.walkRequestOrigin_Completed::Inst            0                       # Table walker requests started/completed, data/inst
system.cpu.dtb.walker.walkRequestOrigin_Completed::total            0                       # Table walker requests started/completed, data/inst
system.cpu.dtb.walker.walkRequestOrigin::total            0                       # Table walker requests started/completed, data/inst
system.cpu.dtb.walker.walks                         0                       # Table walker walks requested
system.cpu.dtb.write_accesses                       0                       # DTB write accesses
system.cpu.dtb.write_hits                           0                       # DTB write hits
system.cpu.dtb.write_misses                         0                       # DTB write misses
system.cpu.fetch2.amo_instructions                  0                       # Number of memory atomic instructions successfully decoded
system.cpu.fetch2.fp_instructions                   0                       # Number of floating point instructions successfully decoded
system.cpu.fetch2.int_instructions             189335                       # Number of integer instructions successfully decoded
system.cpu.fetch2.load_instructions             97062                       # Number of memory load instructions successfully decoded
system.cpu.fetch2.store_instructions            44115                       # Number of memory store instructions successfully decoded
system.cpu.fetch2.vec_instructions                  0                       # Number of SIMD instructions successfully decoded
system.cpu.idleCycles                          944961                       # Total number of cycles that the object has spent stopped
system.cpu.ipc                               0.229830                       # IPC: instructions per cycle
system.cpu.itb.accesses                             0                       # DTB accesses
system.cpu.itb.align_faults                         0                       # Number of TLB faults due to alignment restrictions
system.cpu.itb.domain_faults                        0                       # Number of TLB faults due to domain restrictions
system.cpu.itb.flush_entries                        0                       # Number of entries that have been flushed from TLB
system.cpu.itb.flush_tlb                            0                       # Number of times complete TLB was flushed
system.cpu.itb.flush_tlb_asid                       0                       # Number of times TLB was flushed by ASID
system.cpu.itb.flush_tlb_mva                        0                       # Number of times TLB was flushed by MVA
system.cpu.itb.flush_tlb_mva_asid                   0                       # Number of times TLB was flushed by MVA & ASID
system.cpu.itb.hits                                 0                       # DTB hits
system.cpu.itb.inst_accesses                        0                       # ITB inst accesses
system.cpu.itb.inst_hits                            0                       # ITB inst hits
system.cpu.itb.inst_misses                          0                       # ITB inst misses
system.cpu.itb.misses                               0                       # DTB misses
system.cpu.itb.perms_faults                         0                       # Number of TLB faults due to permissions restrictions
system.cpu.itb.prefetch_faults                      0                       # Number of TLB faults due to prefetch
system.cpu.itb.read_accesses                        0                       # DTB read accesses
system.cpu.itb.read_hits                            0                       # DTB read hits
system.cpu.itb.read_misses                          0                       # DTB read misses
system.cpu.itb.stage2_mmu.stage2_tlb.accesses            0                       # DTB accesses
system.cpu.itb.stage2_mmu.stage2_tlb.align_faults            0                       # Number of TLB faults due to alignment restrictions
system.cpu.itb.stage2_mmu.stage2_tlb.domain_faults            0                       # Number of TLB faults due to domain restrictions
system.cpu.itb.stage2_mmu.stage2_tlb.flush_entries            0                       # Number of entries that have been flushed from TLB
system.cpu.itb.stage2_mmu.stage2_tlb.flush_tlb            0                       # Number of times complete TLB was flushed
system.cpu.itb.stage2_mmu.stage2_tlb.flush_tlb_asid            0                       # Number of times TLB was flushed by ASID
system.cpu.itb.stage2_mmu.stage2_tlb.flush_tlb_mva            0                       # Number of times TLB was flushed by MVA
system.cpu.itb.stage2_mmu.stage2_tlb.flush_tlb_mva_asid            0                       # Number of times TLB was flushed by MVA & ASID
system.cpu.itb.stage2_mmu.stage2_tlb.hits            0                       # DTB hits
system.cpu.itb.stage2_mmu.stage2_tlb.inst_accesses            0                       # ITB inst accesses
system.cpu.itb.stage2_mmu.stage2_tlb.inst_hits            0                       # ITB inst hits
system.cpu.itb.stage2_mmu.stage2_tlb.inst_misses            0                       # ITB inst misses
system.cpu.itb.stage2_mmu.stage2_tlb.misses            0                       # DTB misses
system.cpu.itb.stage2_mmu.stage2_tlb.perms_faults            0                       # Number of TLB faults due to permissions restrictions
system.cpu.itb.stage2_mmu.stage2_tlb.prefetch_faults            0                       # Number of TLB faults due to prefetch
system.cpu.itb.stage2_mmu.stage2_tlb.read_accesses            0                       # DTB read accesses
system.cpu.itb.stage2_mmu.stage2_tlb.read_hits            0                       # DTB read hits
system.cpu.itb.stage2_mmu.stage2_tlb.read_misses            0                       # DTB read misses
system.cpu.itb.stage2_mmu.stage2_tlb.walker.walkRequestOrigin_Requested::Data            0                       # Table walker requests started/completed, data/inst
system.cpu.itb.stage2_mmu.stage2_tlb.walker.walkRequestOrigin_Requested::Inst            0                       # Table walker requests started/completed, data/inst
system.cpu.itb.stage2_mmu.stage2_tlb.walker.walkRequestOrigin_Requested::total            0                       # Table walker requests started/completed, data/inst
system.cpu.itb.stage2_mmu.stage2_tlb.walker.walkRequestOrigin_Completed::Data            0                       # Table walker requests started/completed, data/inst
system.cpu.itb.stage2_mmu.stage2_tlb.walker.walkRequestOrigin_Completed::Inst            0                       # Table walker requests started/completed, data/inst
system.cpu.itb.stage2_mmu.stage2_tlb.walker.walkRequestOrigin_Completed::total            0                       # Table walker requests started/completed, data/inst
system.cpu.itb.stage2_mmu.stage2_tlb.walker.walkRequestOrigin::total            0                       # Table walker requests started/completed, data/inst
system.cpu.itb.stage2_mmu.stage2_tlb.walker.walks            0                       # Table walker walks requested
system.cpu.itb.stage2_mmu.stage2_tlb.write_accesses            0                       # DTB write accesses
system.cpu.itb.stage2_mmu.stage2_tlb.write_hits            0                       # DTB write hits
system.cpu.itb.stage2_mmu.stage2_tlb.write_misses            0                       # DTB write misses
system.cpu.itb.walker.walkRequestOrigin_Requested::Data            0                       # Table walker requests started/completed, data/inst
system.cpu.itb.walker.walkRequestOrigin_Requested::Inst            0                       # Table walker requests started/completed, data/inst
system.cpu.itb.walker.walkRequestOrigin_Requested::total            0                       # Table walker requests started/completed, data/inst
system.cpu.itb.walker.walkRequestOrigin_Completed::Data            0                       # Table walker requests started/completed, data/inst
system.cpu.itb.walker.walkRequestOrigin_Completed::Inst            0                       # Table walker requests started/completed, data/inst
system.cpu.itb.walker.walkRequestOrigin_Completed::total            0                       # Table walker requests started/completed, data/inst
system.cpu.itb.walker.walkRequestOrigin::total            0                       # Table walker requests started/completed, data/inst
system.cpu.itb.walker.walks                         0                       # Table walker walks requested
system.cpu.itb.write_accesses                       0                       # DTB write accesses
system.cpu.itb.write_hits                           0                       # DTB write hits
system.cpu.itb.write_misses                         0                       # DTB write misses
system.cpu.kern.inst.arm                            0                       # number of arm instructions executed
system.cpu.kern.inst.quiesce                      473                       # number of quiesce instructions executed
system.cpu.numCycles                          1435129                       # number of cpu cycles simulated
system.cpu.numFetchSuspends                       473                       # Number of times Execute suspended instruction fetching
system.cpu.numWorkItemsCompleted                    0                       # number of work items this cpu completed
system.cpu.numWorkItemsStarted                      0                       # number of work items this cpu started
system.cpu.op_class_0::No_OpClass                   0      0.00%      0.00% # Class of committed instruction
system.cpu.op_class_0::IntAlu                  207624     55.41%     55.41% # Class of committed instruction
system.cpu.op_class_0::IntMult                   1182      0.32%     55.73% # Class of committed instruction
system.cpu.op_class_0::IntDiv                       0      0.00%     55.73% # Class of committed instruction
system.cpu.op_class_0::FloatAdd                     0      0.00%     55.73% # Class of committed instruction
system.cpu.op_class_0::FloatCmp                     0      0.00%     55.73% # Class of committed instruction
system.cpu.op_class_0::FloatCvt                     0      0.00%     55.73% # Class of committed instruction
system.cpu.op_class_0::FloatMult                    0      0.00%     55.73% # Class of committed instruction
system.cpu.op_class_0::FloatMultAcc                 0      0.00%     55.73% # Class of committed instruction
system.cpu.op_class_0::FloatDiv                     0      0.00%     55.73% # Class of committed instruction
system.cpu.op_class_0::FloatMisc                    0      0.00%     55.73% # Class of committed instruction
system.cpu.op_class_0::FloatSqrt                    0      0.00%     55.73% # Class of committed instruction
system.cpu.op_class_0::SimdAdd                      0      0.00%     55.73% # Class of committed instruction
system.cpu.op_class_0::SimdAddAcc                   0      0.00%     55.73% # Class of committed instruction
system.cpu.op_class_0::SimdAlu                      0      0.00%     55.73% # Class of committed instruction
system.cpu.op_class_0::SimdCmp                      0      0.00%     55.73% # Class of committed instruction
system.cpu.op_class_0::SimdCvt                      0      0.00%     55.73% # Class of committed instruction
system.cpu.op_class_0::SimdMisc                     0      0.00%     55.73% # Class of committed instruction
system.cpu.op_class_0::SimdMult                     0      0.00%     55.73% # Class of committed instruction
system.cpu.op_class_0::SimdMultAcc                  0      0.00%     55.73% # Class of committed instruction
system.cpu.op_class_0::SimdShift                    0      0.00%     55.73% # Class of committed instruction
system.cpu.op_class_0::SimdShiftAcc                 0      0.00%     55.73% # Class of committed instruction
system.cpu.op_class_0::SimdDiv                      0      0.00%     55.73% # Class of committed instruction
system.cpu.op_class_0::SimdSqrt                     0      0.00%     55.73% # Class of committed instruction
system.cpu.op_class_0::SimdFloatAdd                 0      0.00%     55.73% # Class of committed instruction
system.cpu.op_class_0::SimdFloatAlu                 0      0.00%     55.73% # Class of committed instruction
system.cpu.op_class_0::SimdFloatCmp                 0      0.00%     55.73% # Class of committed instruction
system.cpu.op_class_0::SimdFloatCvt                 0      0.00%     55.73% # Class of committed instruction
system.cpu.op_class_0::SimdFloatDiv                 0      0.00%     55.73% # Class of committed instruction
system.cpu.op_class_0::SimdFloatMisc                0      0.00%     55.73% # Class of committed instruction
system.cpu.op_class_0::SimdFloatMult                0      0.00%     55.73% # Class of committed instruction
system.cpu.op_class_0::SimdFloatMultAcc             0      0.00%     55.73% # Class of committed instruction
system.cpu.op_class_0::SimdFloatSqrt                0      0.00%     55.73% # Class of committed instruction
system.cpu.op_class_0::SimdReduceAdd                0      0.00%     55.73% # Class of committed instruction
system.cpu.op_class_0::SimdReduceAlu                0      0.00%     55.73% # Class of committed instruction
system.cpu.op_class_0::SimdReduceCmp                0      0.00%     55.73% # Class of committed instruction
system.cpu.op_class_0::SimdFloatReduceAdd            0      0.00%     55.73% # Class of committed instruction
system.cpu.op_class_0::SimdFloatReduceCmp            0      0.00%     55.73% # Class of committed instruction
system.cpu.op_class_0::SimdAes                      0      0.00%     55.73% # Class of committed instruction
system.cpu.op_class_0::SimdAesMix                   0      0.00%     55.73% # Class of committed instruction
system.cpu.op_class_0::SimdSha1Hash                 0      0.00%     55.73% # Class of committed instruction
system.cpu.op_class_0::SimdSha1Hash2                0      0.00%     55.73% # Class of committed instruction
system.cpu.op_class_0::SimdSha256Hash               0      0.00%     55.73% # Class of committed instruction
system.cpu.op_class_0::SimdSha256Hash2              0      0.00%     55.73% # Class of committed instruction
system.cpu.op_class_0::SimdShaSigma2                0      0.00%     55.73% # Class of committed instruction
system.cpu.op_class_0::SimdShaSigma3                0      0.00%     55.73% # Class of committed instruction
system.cpu.op_class_0::SimdPredAlu                  0      0.00%     55.73% # Class of committed instruction
system.cpu.op_class_0::MemRead                 100033     26.70%     82.42% # Class of committed instruction
system.cpu.op_class_0::MemWrite                 65864     17.58%    100.00% # Class of committed instruction
system.cpu.op_class_0::FloatMemRead                 0      0.00%    100.00% # Class of committed instruction
system.cpu.op_class_0::FloatMemWrite                0      0.00%    100.00% # Class of committed instruction
system.cpu.op_class_0::IprAccess                    0      0.00%    100.00% # Class of committed instruction
system.cpu.op_class_0::InstPrefetch                 0      0.00%    100.00% # Class of committed instruction
system.cpu.op_class_0::total                   374703                       # Class of committed instruction
system.cpu.quiesceCycles                    123563034                       # Total number of cycles that CPU has spent quiesced or waiting for an interrupt
system.cpu.tickCycles                          490168                       # Number of cycles that the object actually ticked
system.membus.snoop_filter.hit_multi_requests            6                       # Number of requests hitting in the snoop filter with multiple (>1) holders of the requested data.
system.membus.snoop_filter.hit_multi_snoops            0                       # Number of snoops hitting in the snoop filter with multiple (>1) holders of the requested data.
system.membus.snoop_filter.hit_single_requests          906                       # Number of requests hitting in the snoop filter with a single holder of the requested data.
system.membus.snoop_filter.hit_single_snoops            0                       # Number of snoops hitting in the snoop filter with a single holder of the requested data.
system.membus.snoop_filter.tot_requests          1941                       # Total number of requests made to the snoop filter.
system.membus.snoop_filter.tot_snoops               0                       # Total number of snoops made to the snoop filter.
system.bridge.pwrStateResidencyTicks::UNDEFINED  82376599375                       # Cumulative time (in ticks) in various power states
system.voltage_domain.voltage                       1                       # Voltage in Volts
system.iocache.pwrStateResidencyTicks::UNDEFINED  82376599375                       # Cumulative time (in ticks) in various power states
system.iocache.blocked_cycles::no_mshrs             0                       # number of cycles access was blocked
system.iocache.blocked_cycles::no_targets            0                       # number of cycles access was blocked
system.iocache.blocked::no_mshrs                    0                       # number of cycles access was blocked
system.iocache.blocked::no_targets                  0                       # number of cycles access was blocked
system.iocache.avg_blocked_cycles::no_mshrs          nan                       # average number of cycles each access was blocked
system.iocache.avg_blocked_cycles::no_targets          nan                       # average number of cycles each access was blocked
system.iocache.replacements                         0                       # number of replacements
system.iocache.tags.pwrStateResidencyTicks::UNDEFINED  82376599375                       # Cumulative time (in ticks) in various power states
system.iocache.tags.tagsinuse                       0                       # Cycle average of tags in use
system.iocache.tags.total_refs                      0                       # Total number of references to valid blocks.
system.iocache.tags.sampled_refs                    0                       # Sample count of references to valid blocks.
system.iocache.tags.avg_refs                      nan                       # Average number of references to valid blocks.
system.iocache.tags.warmup_cycle                    0                       # Cycle when the warmup percentage was hit.
system.iocache.tags.tag_accesses                    0                       # Number of tag accesses
system.iocache.tags.data_accesses                   0                       # Number of data accesses
system.membus.pwrStateResidencyTicks::UNDEFINED  82376599375                       # Cumulative time (in ticks) in various power states
system.membus.trans_dist::ReadReq               80736                       # Transaction distribution
system.membus.trans_dist::ReadResp              81573                       # Transaction distribution
system.membus.trans_dist::WriteReq             110152                       # Transaction distribution
system.membus.trans_dist::WriteResp            110152                       # Transaction distribution
system.membus.trans_dist::WritebackDirty          385                       # Transaction distribution
system.membus.trans_dist::CleanEvict              496                       # Transaction distribution
system.membus.trans_dist::ReadExReq               210                       # Transaction distribution
system.membus.trans_dist::ReadExResp              210                       # Transaction distribution
system.membus.trans_dist::ReadCleanReq            271                       # Transaction distribution
system.membus.trans_dist::ReadSharedReq           574                       # Transaction distribution
system.membus.pkt_count_system.cpu.icache.mem_side::system.realview.bootmem.port          639                       # Packet count per connected master and slave (bytes)
system.membus.pkt_count_system.cpu.icache.mem_side::total          639                       # Packet count per connected master and slave (bytes)
system.membus.pkt_count_system.cpu.dcache.mem_side::system.realview.bootmem.port           74                       # Packet count per connected master and slave (bytes)
system.membus.pkt_count_system.cpu.dcache.mem_side::system.realview.gic.pio         2266                       # Packet count per connected master and slave (bytes)
system.membus.pkt_count_system.cpu.dcache.mem_side::system.mem_ctrls.port         2278                       # Packet count per connected master and slave (bytes)
system.membus.pkt_count_system.cpu.dcache.mem_side::system.acctest.mem2cls.slave         8740                       # Packet count per connected master and slave (bytes)
system.membus.pkt_count_system.cpu.dcache.mem_side::total        13358                       # Packet count per connected master and slave (bytes)
system.membus.pkt_count_system.acctest.coherency_bus.master[0]::system.mem_ctrls.port       370762                       # Packet count per connected master and slave (bytes)
system.membus.pkt_count_system.acctest.coherency_bus.master[0]::total       370762                       # Packet count per connected master and slave (bytes)
system.membus.pkt_count::total                 384759                       # Packet count per connected master and slave (bytes)
system.membus.pkt_size_system.cpu.icache.mem_side::system.realview.bootmem.port        17344                       # Cumulative packet size per connected master and slave (bytes)
system.membus.pkt_size_system.cpu.icache.mem_side::total        17344                       # Cumulative packet size per connected master and slave (bytes)
system.membus.pkt_size_system.cpu.dcache.mem_side::system.realview.bootmem.port         2112                       # Cumulative packet size per connected master and slave (bytes)
system.membus.pkt_size_system.cpu.dcache.mem_side::system.realview.gic.pio         4532                       # Cumulative packet size per connected master and slave (bytes)
system.membus.pkt_size_system.cpu.dcache.mem_side::system.mem_ctrls.port        72704                       # Cumulative packet size per connected master and slave (bytes)
system.membus.pkt_size_system.cpu.dcache.mem_side::system.acctest.mem2cls.slave        12614                       # Cumulative packet size per connected master and slave (bytes)
system.membus.pkt_size_system.cpu.dcache.mem_side::total        91962                       # Cumulative packet size per connected master and slave (bytes)
system.membus.pkt_size_system.acctest.coherency_bus.master[0]::system.mem_ctrls.port     11861548                       # Cumulative packet size per connected master and slave (bytes)
system.membus.pkt_size_system.acctest.coherency_bus.master[0]::total     11861548                       # Cumulative packet size per connected master and slave (bytes)
system.membus.pkt_size::total                11970854                       # Cumulative packet size per connected master and slave (bytes)
system.membus.snoops                                0                       # Total snoops (count)
system.membus.snoopTraffic                          0                       # Total snoop traffic (bytes)
system.membus.snoop_fanout::samples            192647                       # Request fanout histogram
system.membus.snoop_fanout::mean             0.000161                       # Request fanout histogram
system.membus.snoop_fanout::stdev            0.012684                       # Request fanout histogram
system.membus.snoop_fanout::underflows              0      0.00%      0.00% # Request fanout histogram
system.membus.snoop_fanout::0                  192616     99.98%     99.98% # Request fanout histogram
system.membus.snoop_fanout::1                      31      0.02%    100.00% # Request fanout histogram
system.membus.snoop_fanout::2                       0      0.00%    100.00% # Request fanout histogram
system.membus.snoop_fanout::3                       0      0.00%    100.00% # Request fanout histogram
system.membus.snoop_fanout::4                       0      0.00%    100.00% # Request fanout histogram
system.membus.snoop_fanout::overflows               0      0.00%    100.00% # Request fanout histogram
system.membus.snoop_fanout::min_value               0                       # Request fanout histogram
system.membus.snoop_fanout::max_value               1                       # Request fanout histogram
system.membus.snoop_fanout::total              192647                       # Request fanout histogram
system.membus.reqLayer6.occupancy           648236235                       # Layer occupancy (ticks)
system.membus.reqLayer6.utilization               0.8                       # Layer utilization (%)
system.membus.reqLayer7.occupancy            11049875                       # Layer occupancy (ticks)
system.membus.reqLayer7.utilization               0.0                       # Layer utilization (%)
system.membus.reqLayer1.occupancy              625187                       # Layer occupancy (ticks)
system.membus.reqLayer1.utilization               0.0                       # Layer utilization (%)
system.membus.reqLayer2.occupancy             2157125                       # Layer occupancy (ticks)
system.membus.reqLayer2.utilization               0.0                       # Layer utilization (%)
system.membus.badaddr_responder.pwrStateResidencyTicks::UNDEFINED  82376599375                       # Cumulative time (in ticks) in various power states
system.membus.respLayer4.occupancy           10545030                       # Layer occupancy (ticks)
system.membus.respLayer4.utilization              0.0                       # Layer utilization (%)
system.membus.respLayer7.occupancy          570531945                       # Layer occupancy (ticks)
system.membus.respLayer7.utilization              0.7                       # Layer utilization (%)
system.membus.respLayer3.occupancy            1359500                       # Layer occupancy (ticks)
system.membus.respLayer3.utilization              0.0                       # Layer utilization (%)
system.acctest.harris_non_max0_spm.pwrStateResidencyTicks::UNDEFINED  82376599375                       # Cumulative time (in ticks) in various power states
system.acctest.harris_non_max0_spm.bytes_read::.acctest.harris_non_max0.system.acctest.harris_non_max0       196608                       # Number of bytes read from this memory
system.acctest.harris_non_max0_spm.bytes_read::.acctest.harris_non_max0_dma        49152                       # Number of bytes read from this memory
system.acctest.harris_non_max0_spm.bytes_read::total       245760                       # Number of bytes read from this memory
system.acctest.harris_non_max0_spm.bytes_written::.acctest.harris_non_max0.system.acctest.harris_non_max0        49152                       # Number of bytes written to this memory
system.acctest.harris_non_max0_spm.bytes_written::.acctest.harris_non_max0_dma       196608                       # Number of bytes written to this memory
system.acctest.harris_non_max0_spm.bytes_written::total       245760                       # Number of bytes written to this memory
system.acctest.harris_non_max0_spm.num_reads::.acctest.harris_non_max0.system.acctest.harris_non_max0        49152                       # Number of read requests responded to by this memory
system.acctest.harris_non_max0_spm.num_reads::.acctest.harris_non_max0_dma         1536                       # Number of read requests responded to by this memory
system.acctest.harris_non_max0_spm.num_reads::total        50688                       # Number of read requests responded to by this memory
system.acctest.harris_non_max0_spm.num_writes::.acctest.harris_non_max0.system.acctest.harris_non_max0        49152                       # Number of write requests responded to by this memory
system.acctest.harris_non_max0_spm.num_writes::.acctest.harris_non_max0_dma         6144                       # Number of write requests responded to by this memory
system.acctest.harris_non_max0_spm.num_writes::total        55296                       # Number of write requests responded to by this memory
system.acctest.harris_non_max0_spm.bw_read::.acctest.harris_non_max0.system.acctest.harris_non_max0      2516619                       # Total read bandwidth from this memory (bytes/s)
system.acctest.harris_non_max0_spm.bw_read::.acctest.harris_non_max0_dma       629155                       # Total read bandwidth from this memory (bytes/s)
system.acctest.harris_non_max0_spm.bw_read::total      3145774                       # Total read bandwidth from this memory (bytes/s)
system.acctest.harris_non_max0_spm.bw_write::.acctest.harris_non_max0.system.acctest.harris_non_max0       629155                       # Write bandwidth from this memory (bytes/s)
system.acctest.harris_non_max0_spm.bw_write::.acctest.harris_non_max0_dma      2516619                       # Write bandwidth from this memory (bytes/s)
system.acctest.harris_non_max0_spm.bw_write::total      3145774                       # Write bandwidth from this memory (bytes/s)
system.acctest.harris_non_max0_spm.bw_total::.acctest.harris_non_max0.system.acctest.harris_non_max0      3145774                       # Total bandwidth to/from this memory (bytes/s)
system.acctest.harris_non_max0_spm.bw_total::.acctest.harris_non_max0_dma      3145774                       # Total bandwidth to/from this memory (bytes/s)
system.acctest.harris_non_max0_spm.bw_total::total      6291548                       # Total bandwidth to/from this memory (bytes/s)
system.acctest.elem_matrix2_spm.pwrStateResidencyTicks::UNDEFINED  82376599375                       # Cumulative time (in ticks) in various power states
system.acctest.elem_matrix3_spm.pwrStateResidencyTicks::UNDEFINED  82376599375                       # Cumulative time (in ticks) in various power states
system.acctest.local_bus.pwrStateResidencyTicks::UNDEFINED  82376599375                       # Cumulative time (in ticks) in various power states
system.acctest.local_bus.trans_dist::ReadReq       474624                       # Transaction distribution
system.acctest.local_bus.trans_dist::ReadResp       474624                       # Transaction distribution
system.acctest.local_bus.trans_dist::WriteReq       428869                       # Transaction distribution
system.acctest.local_bus.trans_dist::WriteResp       428869                       # Transaction distribution
system.acctest.local_bus.pkt_count_system.acctest.mem2cls.master::system.acctest.canny_non_max0.pio           48                       # Packet count per connected master and slave (bytes)
system.acctest.local_bus.pkt_count_system.acctest.mem2cls.master::system.acctest.canny_non_max0_dma.pio          112                       # Packet count per connected master and slave (bytes)
system.acctest.local_bus.pkt_count_system.acctest.mem2cls.master::system.acctest.convolution0.pio         1196                       # Packet count per connected master and slave (bytes)
system.acctest.local_bus.pkt_count_system.acctest.mem2cls.master::system.acctest.convolution0_dma.pio         1988                       # Packet count per connected master and slave (bytes)
system.acctest.local_bus.pkt_count_system.acctest.mem2cls.master::system.acctest.edge_tracking0.pio           64                       # Packet count per connected master and slave (bytes)
system.acctest.local_bus.pkt_count_system.acctest.mem2cls.master::system.acctest.edge_tracking0_dma.pio          112                       # Packet count per connected master and slave (bytes)
system.acctest.local_bus.pkt_count_system.acctest.mem2cls.master::system.acctest.elem_matrix0.pio         1660                       # Packet count per connected master and slave (bytes)
system.acctest.local_bus.pkt_count_system.acctest.mem2cls.master::system.acctest.elem_matrix0_dma.pio         2660                       # Packet count per connected master and slave (bytes)
system.acctest.local_bus.pkt_count_system.acctest.mem2cls.master::system.acctest.grayscale0.pio          120                       # Packet count per connected master and slave (bytes)
system.acctest.local_bus.pkt_count_system.acctest.mem2cls.master::system.acctest.grayscale0_dma.pio          336                       # Packet count per connected master and slave (bytes)
system.acctest.local_bus.pkt_count_system.acctest.mem2cls.master::system.acctest.harris_non_max0.pio           36                       # Packet count per connected master and slave (bytes)
system.acctest.local_bus.pkt_count_system.acctest.mem2cls.master::system.acctest.harris_non_max0_dma.pio           84                       # Packet count per connected master and slave (bytes)
system.acctest.local_bus.pkt_count_system.acctest.mem2cls.master::system.acctest.isp0.pio          144                       # Packet count per connected master and slave (bytes)
system.acctest.local_bus.pkt_count_system.acctest.mem2cls.master::system.acctest.isp0_dma.pio          180                       # Packet count per connected master and slave (bytes)
system.acctest.local_bus.pkt_count_system.acctest.mem2cls.master::total         8740                       # Packet count per connected master and slave (bytes)
system.acctest.local_bus.pkt_count_system.acctest.canny_non_max0_dma.dma::system.acctest.canny_non_max0_spm.port        32768                       # Packet count per connected master and slave (bytes)
system.acctest.local_bus.pkt_count_system.acctest.canny_non_max0_dma.dma::system.acctest.elem_matrix0_spm.port        32768                       # Packet count per connected master and slave (bytes)
system.acctest.local_bus.pkt_count_system.acctest.canny_non_max0_dma.dma::total        65536                       # Packet count per connected master and slave (bytes)
system.acctest.local_bus.pkt_count_system.acctest.convolution0_dma.dma::system.acctest.convolution0_spm.port       336288                       # Packet count per connected master and slave (bytes)
system.acctest.local_bus.pkt_count_system.acctest.convolution0_dma.dma::system.acctest.elem_matrix0_spm.port       110592                       # Packet count per connected master and slave (bytes)
system.acctest.local_bus.pkt_count_system.acctest.convolution0_dma.dma::system.acctest.grayscale0_spm.port        57344                       # Packet count per connected master and slave (bytes)
system.acctest.local_bus.pkt_count_system.acctest.convolution0_dma.dma::total       504224                       # Packet count per connected master and slave (bytes)
system.acctest.local_bus.pkt_count_system.acctest.edge_tracking0_dma.dma::system.acctest.canny_non_max0_spm.port        16384                       # Packet count per connected master and slave (bytes)
system.acctest.local_bus.pkt_count_system.acctest.edge_tracking0_dma.dma::system.acctest.edge_tracking0_spm.port        20480                       # Packet count per connected master and slave (bytes)
system.acctest.local_bus.pkt_count_system.acctest.edge_tracking0_dma.dma::total        36864                       # Packet count per connected master and slave (bytes)
system.acctest.local_bus.pkt_count_system.acctest.elem_matrix0_dma.dma::system.acctest.convolution0_spm.port       241664                       # Packet count per connected master and slave (bytes)
system.acctest.local_bus.pkt_count_system.acctest.elem_matrix0_dma.dma::system.acctest.elem_matrix0_spm.port       765958                       # Packet count per connected master and slave (bytes)
system.acctest.local_bus.pkt_count_system.acctest.elem_matrix0_dma.dma::system.acctest.grayscale0_spm.port        20480                       # Packet count per connected master and slave (bytes)
system.acctest.local_bus.pkt_count_system.acctest.elem_matrix0_dma.dma::total      1028102                       # Packet count per connected master and slave (bytes)
system.acctest.local_bus.pkt_count_system.acctest.grayscale0_dma.dma::system.acctest.grayscale0_spm.port        86016                       # Packet count per connected master and slave (bytes)
system.acctest.local_bus.pkt_count_system.acctest.grayscale0_dma.dma::system.acctest.isp0_spm.port        36864                       # Packet count per connected master and slave (bytes)
system.acctest.local_bus.pkt_count_system.acctest.grayscale0_dma.dma::total       122880                       # Packet count per connected master and slave (bytes)
system.acctest.local_bus.pkt_count_system.acctest.harris_non_max0_dma.dma::system.acctest.elem_matrix0_spm.port        12288                       # Packet count per connected master and slave (bytes)
system.acctest.local_bus.pkt_count_system.acctest.harris_non_max0_dma.dma::system.acctest.harris_non_max0_spm.port        15360                       # Packet count per connected master and slave (bytes)
system.acctest.local_bus.pkt_count_system.acctest.harris_non_max0_dma.dma::total        27648                       # Packet count per connected master and slave (bytes)
system.acctest.local_bus.pkt_count_system.acctest.isp0_dma.dma::system.acctest.isp0_spm.port        12992                       # Packet count per connected master and slave (bytes)
system.acctest.local_bus.pkt_count_system.acctest.isp0_dma.dma::total        12992                       # Packet count per connected master and slave (bytes)
system.acctest.local_bus.pkt_count::total      1806986                       # Packet count per connected master and slave (bytes)
system.acctest.local_bus.pkt_size_system.acctest.mem2cls.master::system.acctest.canny_non_max0.pio           60                       # Cumulative packet size per connected master and slave (bytes)
system.acctest.local_bus.pkt_size_system.acctest.mem2cls.master::system.acctest.canny_non_max0_dma.pio          176                       # Cumulative packet size per connected master and slave (bytes)
system.acctest.local_bus.pkt_size_system.acctest.mem2cls.master::system.acctest.convolution0.pio         1678                       # Cumulative packet size per connected master and slave (bytes)
system.acctest.local_bus.pkt_size_system.acctest.mem2cls.master::system.acctest.convolution0_dma.pio         3124                       # Cumulative packet size per connected master and slave (bytes)
system.acctest.local_bus.pkt_size_system.acctest.mem2cls.master::system.acctest.edge_tracking0.pio           92                       # Cumulative packet size per connected master and slave (bytes)
system.acctest.local_bus.pkt_size_system.acctest.mem2cls.master::system.acctest.edge_tracking0_dma.pio          176                       # Cumulative packet size per connected master and slave (bytes)
system.acctest.local_bus.pkt_size_system.acctest.mem2cls.master::system.acctest.elem_matrix0.pio         1826                       # Cumulative packet size per connected master and slave (bytes)
system.acctest.local_bus.pkt_size_system.acctest.mem2cls.master::system.acctest.elem_matrix0_dma.pio         4180                       # Cumulative packet size per connected master and slave (bytes)
system.acctest.local_bus.pkt_size_system.acctest.mem2cls.master::system.acctest.grayscale0.pio          132                       # Cumulative packet size per connected master and slave (bytes)
system.acctest.local_bus.pkt_size_system.acctest.mem2cls.master::system.acctest.grayscale0_dma.pio          528                       # Cumulative packet size per connected master and slave (bytes)
system.acctest.local_bus.pkt_size_system.acctest.mem2cls.master::system.acctest.harris_non_max0.pio           45                       # Cumulative packet size per connected master and slave (bytes)
system.acctest.local_bus.pkt_size_system.acctest.mem2cls.master::system.acctest.harris_non_max0_dma.pio          132                       # Cumulative packet size per connected master and slave (bytes)
system.acctest.local_bus.pkt_size_system.acctest.mem2cls.master::system.acctest.isp0.pio          180                       # Cumulative packet size per connected master and slave (bytes)
system.acctest.local_bus.pkt_size_system.acctest.mem2cls.master::system.acctest.isp0_dma.pio          285                       # Cumulative packet size per connected master and slave (bytes)
system.acctest.local_bus.pkt_size_system.acctest.mem2cls.master::total        12614                       # Cumulative packet size per connected master and slave (bytes)
system.acctest.local_bus.pkt_size_system.acctest.canny_non_max0_dma.dma::system.acctest.canny_non_max0_spm.port       524288                       # Cumulative packet size per connected master and slave (bytes)
system.acctest.local_bus.pkt_size_system.acctest.canny_non_max0_dma.dma::system.acctest.elem_matrix0_spm.port       524288                       # Cumulative packet size per connected master and slave (bytes)
system.acctest.local_bus.pkt_size_system.acctest.canny_non_max0_dma.dma::total      1048576                       # Cumulative packet size per connected master and slave (bytes)
system.acctest.local_bus.pkt_size_system.acctest.convolution0_dma.dma::system.acctest.convolution0_spm.port      5378928                       # Cumulative packet size per connected master and slave (bytes)
system.acctest.local_bus.pkt_size_system.acctest.convolution0_dma.dma::system.acctest.elem_matrix0_spm.port      1769472                       # Cumulative packet size per connected master and slave (bytes)
system.acctest.local_bus.pkt_size_system.acctest.convolution0_dma.dma::system.acctest.grayscale0_spm.port       917504                       # Cumulative packet size per connected master and slave (bytes)
system.acctest.local_bus.pkt_size_system.acctest.convolution0_dma.dma::total      8065904                       # Cumulative packet size per connected master and slave (bytes)
system.acctest.local_bus.pkt_size_system.acctest.edge_tracking0_dma.dma::system.acctest.canny_non_max0_spm.port       262144                       # Cumulative packet size per connected master and slave (bytes)
system.acctest.local_bus.pkt_size_system.acctest.edge_tracking0_dma.dma::system.acctest.edge_tracking0_spm.port       327680                       # Cumulative packet size per connected master and slave (bytes)
system.acctest.local_bus.pkt_size_system.acctest.edge_tracking0_dma.dma::total       589824                       # Cumulative packet size per connected master and slave (bytes)
system.acctest.local_bus.pkt_size_system.acctest.elem_matrix0_dma.dma::system.acctest.convolution0_spm.port      3866624                       # Cumulative packet size per connected master and slave (bytes)
system.acctest.local_bus.pkt_size_system.acctest.elem_matrix0_dma.dma::system.acctest.elem_matrix0_spm.port     12255244                       # Cumulative packet size per connected master and slave (bytes)
system.acctest.local_bus.pkt_size_system.acctest.elem_matrix0_dma.dma::system.acctest.grayscale0_spm.port       327680                       # Cumulative packet size per connected master and slave (bytes)
system.acctest.local_bus.pkt_size_system.acctest.elem_matrix0_dma.dma::total     16449548                       # Cumulative packet size per connected master and slave (bytes)
system.acctest.local_bus.pkt_size_system.acctest.grayscale0_dma.dma::system.acctest.grayscale0_spm.port      1376256                       # Cumulative packet size per connected master and slave (bytes)
system.acctest.local_bus.pkt_size_system.acctest.grayscale0_dma.dma::system.acctest.isp0_spm.port       589824                       # Cumulative packet size per connected master and slave (bytes)
system.acctest.local_bus.pkt_size_system.acctest.grayscale0_dma.dma::total      1966080                       # Cumulative packet size per connected master and slave (bytes)
system.acctest.local_bus.pkt_size_system.acctest.harris_non_max0_dma.dma::system.acctest.elem_matrix0_spm.port       196608                       # Cumulative packet size per connected master and slave (bytes)
system.acctest.local_bus.pkt_size_system.acctest.harris_non_max0_dma.dma::system.acctest.harris_non_max0_spm.port       245760                       # Cumulative packet size per connected master and slave (bytes)
system.acctest.local_bus.pkt_size_system.acctest.harris_non_max0_dma.dma::total       442368                       # Cumulative packet size per connected master and slave (bytes)
system.acctest.local_bus.pkt_size_system.acctest.isp0_dma.dma::system.acctest.isp0_spm.port       207536                       # Cumulative packet size per connected master and slave (bytes)
system.acctest.local_bus.pkt_size_system.acctest.isp0_dma.dma::total       207536                       # Cumulative packet size per connected master and slave (bytes)
system.acctest.local_bus.pkt_size::total     28782450                       # Cumulative packet size per connected master and slave (bytes)
system.acctest.local_bus.occupancy         2476938250                       # Network occupancy (ticks)
system.acctest.local_bus.utilization              3.2                       # Network utilization (%)
system.acctest.local_bus.numRequests          2068515                       # Number of requests
system.acctest.local_bus.averageQueuingDelay         1037                       # Average queuing delay (ticks)
system.acctest.local_bus.tailQueuingDelay         9000                       # Tail queuing delay (ticks)
system.acctest.local_bus.averageQueueLength         0.03                       # Average queue length
system.acctest.local_bus.maxQueueLength             6                       # Max queue length
system.acctest.local_bus.reqLayer0.occupancy   2183803940                       # Layer occupancy (ticks)
system.acctest.local_bus.reqLayer0.utilization          2.8                       # Layer utilization (%)
system.acctest.local_bus.respLayer0.occupancy   1861957000                       # Layer occupancy (ticks)
system.acctest.local_bus.respLayer0.utilization          2.4                       # Layer utilization (%)
system.acctest.isp0.pwrStateResidencyTicks::UNDEFINED  82376599375                       # Cumulative time (in ticks) in various power states
system.acctest.edge_tracking0.pwrStateResidencyTicks::UNDEFINED  82376599375                       # Cumulative time (in ticks) in various power states
system.acctest.grayscale0_spm.pwrStateResidencyTicks::UNDEFINED  82376599375                       # Cumulative time (in ticks) in various power states
system.acctest.grayscale0_spm.bytes_read::.acctest.convolution0_dma       917504                       # Number of bytes read from this memory
system.acctest.grayscale0_spm.bytes_read::.acctest.elem_matrix0_dma       327680                       # Number of bytes read from this memory
system.acctest.grayscale0_spm.bytes_read::.acctest.grayscale0.system.acctest.grayscale0       589824                       # Number of bytes read from this memory
system.acctest.grayscale0_spm.bytes_read::.acctest.grayscale0_dma       786432                       # Number of bytes read from this memory
system.acctest.grayscale0_spm.bytes_read::total      2621440                       # Number of bytes read from this memory
system.acctest.grayscale0_spm.bytes_written::.acctest.grayscale0.system.acctest.grayscale0       786432                       # Number of bytes written to this memory
system.acctest.grayscale0_spm.bytes_written::.acctest.grayscale0_dma       589824                       # Number of bytes written to this memory
system.acctest.grayscale0_spm.bytes_written::total      1376256                       # Number of bytes written to this memory
system.acctest.grayscale0_spm.num_reads::.acctest.convolution0_dma        28672                       # Number of read requests responded to by this memory
system.acctest.grayscale0_spm.num_reads::.acctest.elem_matrix0_dma        10240                       # Number of read requests responded to by this memory
system.acctest.grayscale0_spm.num_reads::.acctest.grayscale0.system.acctest.grayscale0       589824                       # Number of read requests responded to by this memory
system.acctest.grayscale0_spm.num_reads::.acctest.grayscale0_dma        24576                       # Number of read requests responded to by this memory
system.acctest.grayscale0_spm.num_reads::total       653312                       # Number of read requests responded to by this memory
system.acctest.grayscale0_spm.num_writes::.acctest.grayscale0.system.acctest.grayscale0       196608                       # Number of write requests responded to by this memory
system.acctest.grayscale0_spm.num_writes::.acctest.grayscale0_dma        18432                       # Number of write requests responded to by this memory
system.acctest.grayscale0_spm.num_writes::total       215040                       # Number of write requests responded to by this memory
system.acctest.grayscale0_spm.bw_read::.acctest.convolution0_dma     11744224                       # Total read bandwidth from this memory (bytes/s)
system.acctest.grayscale0_spm.bw_read::.acctest.elem_matrix0_dma      4194366                       # Total read bandwidth from this memory (bytes/s)
system.acctest.grayscale0_spm.bw_read::.acctest.grayscale0.system.acctest.grayscale0      7549858                       # Total read bandwidth from this memory (bytes/s)
system.acctest.grayscale0_spm.bw_read::.acctest.grayscale0_dma     10066478                       # Total read bandwidth from this memory (bytes/s)
system.acctest.grayscale0_spm.bw_read::total     33554925                       # Total read bandwidth from this memory (bytes/s)
system.acctest.grayscale0_spm.bw_write::.acctest.grayscale0.system.acctest.grayscale0     10066478                       # Write bandwidth from this memory (bytes/s)
system.acctest.grayscale0_spm.bw_write::.acctest.grayscale0_dma      7549858                       # Write bandwidth from this memory (bytes/s)
system.acctest.grayscale0_spm.bw_write::total     17616336                       # Write bandwidth from this memory (bytes/s)
system.acctest.grayscale0_spm.bw_total::.acctest.convolution0_dma     11744224                       # Total bandwidth to/from this memory (bytes/s)
system.acctest.grayscale0_spm.bw_total::.acctest.elem_matrix0_dma      4194366                       # Total bandwidth to/from this memory (bytes/s)
system.acctest.grayscale0_spm.bw_total::.acctest.grayscale0.system.acctest.grayscale0     17616336                       # Total bandwidth to/from this memory (bytes/s)
system.acctest.grayscale0_spm.bw_total::.acctest.grayscale0_dma     17616336                       # Total bandwidth to/from this memory (bytes/s)
system.acctest.grayscale0_spm.bw_total::total     51171261                       # Total bandwidth to/from this memory (bytes/s)
system.acctest.elem_matrix1_dma.pwrStateResidencyTicks::UNDEFINED  82376599375                       # Cumulative time (in ticks) in various power states
system.acctest.mem2cls.pwrStateResidencyTicks::UNDEFINED  82376599375                       # Cumulative time (in ticks) in various power states
system.acctest.isp0_dma.pwrStateResidencyTicks::UNDEFINED  82376599375                       # Cumulative time (in ticks) in various power states
system.acctest.grayscale0_dma.pwrStateResidencyTicks::UNDEFINED  82376599375                       # Cumulative time (in ticks) in various power states
system.acctest.convolution0.pwrStateResidencyTicks::UNDEFINED  82376599375                       # Cumulative time (in ticks) in various power states
system.acctest.convolution1.pwrStateResidencyTicks::UNDEFINED  82376599375                       # Cumulative time (in ticks) in various power states
system.acctest.isp0_spm.pwrStateResidencyTicks::UNDEFINED  82376599375                       # Cumulative time (in ticks) in various power states
system.acctest.isp0_spm.bytes_read::.acctest.grayscale0_dma       589824                       # Number of bytes read from this memory
system.acctest.isp0_spm.bytes_read::.acctest.isp0.system.acctest.isp0      1376256                       # Number of bytes read from this memory
system.acctest.isp0_spm.bytes_read::total      1966080                       # Number of bytes read from this memory
system.acctest.isp0_spm.bytes_written::.acctest.isp0.system.acctest.isp0       589824                       # Number of bytes written to this memory
system.acctest.isp0_spm.bytes_written::.acctest.isp0_dma       207536                       # Number of bytes written to this memory
system.acctest.isp0_spm.bytes_written::total       797360                       # Number of bytes written to this memory
system.acctest.isp0_spm.num_reads::.acctest.grayscale0_dma        18432                       # Number of read requests responded to by this memory
system.acctest.isp0_spm.num_reads::.acctest.isp0.system.acctest.isp0      1376256                       # Number of read requests responded to by this memory
system.acctest.isp0_spm.num_reads::total      1394688                       # Number of read requests responded to by this memory
system.acctest.isp0_spm.num_writes::.acctest.isp0.system.acctest.isp0       589824                       # Number of write requests responded to by this memory
system.acctest.isp0_spm.num_writes::.acctest.isp0_dma         6496                       # Number of write requests responded to by this memory
system.acctest.isp0_spm.num_writes::total       596320                       # Number of write requests responded to by this memory
system.acctest.isp0_spm.bw_read::.acctest.grayscale0_dma      7549858                       # Total read bandwidth from this memory (bytes/s)
system.acctest.isp0_spm.bw_read::.acctest.isp0.system.acctest.isp0     17616336                       # Total read bandwidth from this memory (bytes/s)
system.acctest.isp0_spm.bw_read::total       25166194                       # Total read bandwidth from this memory (bytes/s)
system.acctest.isp0_spm.bw_write::.acctest.isp0.system.acctest.isp0      7549858                       # Write bandwidth from this memory (bytes/s)
system.acctest.isp0_spm.bw_write::.acctest.isp0_dma      2656500                       # Write bandwidth from this memory (bytes/s)
system.acctest.isp0_spm.bw_write::total      10206358                       # Write bandwidth from this memory (bytes/s)
system.acctest.isp0_spm.bw_total::.acctest.grayscale0_dma      7549858                       # Total bandwidth to/from this memory (bytes/s)
system.acctest.isp0_spm.bw_total::.acctest.isp0.system.acctest.isp0     25166194                       # Total bandwidth to/from this memory (bytes/s)
system.acctest.isp0_spm.bw_total::.acctest.isp0_dma      2656500                       # Total bandwidth to/from this memory (bytes/s)
system.acctest.isp0_spm.bw_total::total      35372552                       # Total bandwidth to/from this memory (bytes/s)
system.acctest.coherency_bus.pwrStateResidencyTicks::UNDEFINED  82376599375                       # Cumulative time (in ticks) in various power states
system.acctest.coherency_bus.trans_dist::ReadReq        80169                       # Transaction distribution
system.acctest.coherency_bus.trans_dist::ReadResp        80161                       # Transaction distribution
system.acctest.coherency_bus.trans_dist::WriteReq       105216                       # Transaction distribution
system.acctest.coherency_bus.trans_dist::WriteResp       105216                       # Transaction distribution
system.acctest.coherency_bus.pkt_count_system.acctest.convolution0_dma.dma::system.membus.slave[7]        84176                       # Packet count per connected master and slave (bytes)
system.acctest.coherency_bus.pkt_count_system.acctest.edge_tracking0_dma.dma::system.membus.slave[7]         2048                       # Packet count per connected master and slave (bytes)
system.acctest.coherency_bus.pkt_count_system.acctest.elem_matrix0_dma.dma::system.membus.slave[7]       251910                       # Packet count per connected master and slave (bytes)
system.acctest.coherency_bus.pkt_count_system.acctest.grayscale0_dma.dma::system.membus.slave[7]        24576                       # Packet count per connected master and slave (bytes)
system.acctest.coherency_bus.pkt_count_system.acctest.harris_non_max0_dma.dma::system.membus.slave[7]         1536                       # Packet count per connected master and slave (bytes)
system.acctest.coherency_bus.pkt_count_system.acctest.isp0_dma.dma::system.membus.slave[7]         6516                       # Packet count per connected master and slave (bytes)
system.acctest.coherency_bus.pkt_count::total       370762                       # Packet count per connected master and slave (bytes)
system.acctest.coherency_bus.pkt_size_system.acctest.convolution0_dma.dma::system.membus.slave[7]      2691952                       # Cumulative packet size per connected master and slave (bytes)
system.acctest.coherency_bus.pkt_size_system.acctest.edge_tracking0_dma.dma::system.membus.slave[7]        65536                       # Cumulative packet size per connected master and slave (bytes)
system.acctest.coherency_bus.pkt_size_system.acctest.elem_matrix0_dma.dma::system.membus.slave[7]      8060940                       # Cumulative packet size per connected master and slave (bytes)
system.acctest.coherency_bus.pkt_size_system.acctest.grayscale0_dma.dma::system.membus.slave[7]       786432                       # Cumulative packet size per connected master and slave (bytes)
system.acctest.coherency_bus.pkt_size_system.acctest.harris_non_max0_dma.dma::system.membus.slave[7]        49152                       # Cumulative packet size per connected master and slave (bytes)
system.acctest.coherency_bus.pkt_size_system.acctest.isp0_dma.dma::system.membus.slave[7]       207536                       # Cumulative packet size per connected master and slave (bytes)
system.acctest.coherency_bus.pkt_size::total     11861548                       # Cumulative packet size per connected master and slave (bytes)
system.acctest.coherency_bus.snoops                 0                       # Total snoops (count)
system.acctest.coherency_bus.snoopTraffic            0                       # Total snoop traffic (bytes)
system.acctest.coherency_bus.snoop_fanout::samples       246883                       # Request fanout histogram
system.acctest.coherency_bus.snoop_fanout::mean            0                       # Request fanout histogram
system.acctest.coherency_bus.snoop_fanout::stdev            0                       # Request fanout histogram
system.acctest.coherency_bus.snoop_fanout::underflows            0      0.00%      0.00% # Request fanout histogram
system.acctest.coherency_bus.snoop_fanout::0       246883    100.00%    100.00% # Request fanout histogram
system.acctest.coherency_bus.snoop_fanout::overflows            0      0.00%    100.00% # Request fanout histogram
system.acctest.coherency_bus.snoop_fanout::min_value            0                       # Request fanout histogram
system.acctest.coherency_bus.snoop_fanout::max_value            0                       # Request fanout histogram
system.acctest.coherency_bus.snoop_fanout::total       246883                       # Request fanout histogram
system.acctest.coherency_bus.reqLayer0.occupancy    705287110                       # Layer occupancy (ticks)
system.acctest.coherency_bus.reqLayer0.utilization          0.9                       # Layer utilization (%)
system.acctest.coherency_bus.respLayer0.occupancy    505916000                       # Layer occupancy (ticks)
system.acctest.coherency_bus.respLayer0.utilization          0.6                       # Layer utilization (%)
system.acctest.convolution0_spm.pwrStateResidencyTicks::UNDEFINED  82376599375                       # Cumulative time (in ticks) in various power states
system.acctest.convolution0_spm.bytes_read::.acctest.convolution0.system.acctest.convolution0    157011616                       # Number of bytes read from this memory
system.acctest.convolution0_spm.bytes_read::.acctest.convolution0_dma      1703936                       # Number of bytes read from this memory
system.acctest.convolution0_spm.bytes_read::.acctest.elem_matrix0_dma      3866624                       # Number of bytes read from this memory
system.acctest.convolution0_spm.bytes_read::total    162582176                       # Number of bytes read from this memory
system.acctest.convolution0_spm.bytes_written::.acctest.convolution0.system.acctest.convolution0      3868144                       # Number of bytes written to this memory
system.acctest.convolution0_spm.bytes_written::.acctest.convolution0_dma      3674992                       # Number of bytes written to this memory
system.acctest.convolution0_spm.bytes_written::total      7543136                       # Number of bytes written to this memory
system.acctest.convolution0_spm.num_reads::.acctest.convolution0.system.acctest.convolution0     39252904                       # Number of read requests responded to by this memory
system.acctest.convolution0_spm.num_reads::.acctest.convolution0_dma        53248                       # Number of read requests responded to by this memory
system.acctest.convolution0_spm.num_reads::.acctest.elem_matrix0_dma       120832                       # Number of read requests responded to by this memory
system.acctest.convolution0_spm.num_reads::total     39426984                       # Number of read requests responded to by this memory
system.acctest.convolution0_spm.num_writes::.acctest.convolution0.system.acctest.convolution0       967036                       # Number of write requests responded to by this memory
system.acctest.convolution0_spm.num_writes::.acctest.convolution0_dma       114896                       # Number of write requests responded to by this memory
system.acctest.convolution0_spm.num_writes::total      1081932                       # Number of write requests responded to by this memory
system.acctest.convolution0_spm.bw_read::.acctest.convolution0.system.acctest.convolution0   2009778221                       # Total read bandwidth from this memory (bytes/s)
system.acctest.convolution0_spm.bw_read::.acctest.convolution0_dma     21810701                       # Total read bandwidth from this memory (bytes/s)
system.acctest.convolution0_spm.bw_read::.acctest.elem_matrix0_dma     49493515                       # Total read bandwidth from this memory (bytes/s)
system.acctest.convolution0_spm.bw_read::total   2081082436                       # Total read bandwidth from this memory (bytes/s)
system.acctest.convolution0_spm.bw_write::.acctest.convolution0.system.acctest.convolution0     49512971                       # Write bandwidth from this memory (bytes/s)
system.acctest.convolution0_spm.bw_write::.acctest.convolution0_dma     47040589                       # Write bandwidth from this memory (bytes/s)
system.acctest.convolution0_spm.bw_write::total     96553560                       # Write bandwidth from this memory (bytes/s)
system.acctest.convolution0_spm.bw_total::.acctest.convolution0.system.acctest.convolution0   2059291191                       # Total bandwidth to/from this memory (bytes/s)
system.acctest.convolution0_spm.bw_total::.acctest.convolution0_dma     68851290                       # Total bandwidth to/from this memory (bytes/s)
system.acctest.convolution0_spm.bw_total::.acctest.elem_matrix0_dma     49493515                       # Total bandwidth to/from this memory (bytes/s)
system.acctest.convolution0_spm.bw_total::total   2177635996                       # Total bandwidth to/from this memory (bytes/s)
system.acctest.elem_matrix0_dma.pwrStateResidencyTicks::UNDEFINED  82376599375                       # Cumulative time (in ticks) in various power states
system.acctest.grayscale0.pwrStateResidencyTicks::UNDEFINED  82376599375                       # Cumulative time (in ticks) in various power states
system.acctest.canny_non_max0.pwrStateResidencyTicks::UNDEFINED  82376599375                       # Cumulative time (in ticks) in various power states
system.acctest.elem_matrix0_spm.pwrStateResidencyTicks::UNDEFINED  82376599375                       # Cumulative time (in ticks) in various power states
system.acctest.elem_matrix0_spm.bytes_read::.acctest.canny_non_max0_dma       524288                       # Number of bytes read from this memory
system.acctest.elem_matrix0_spm.bytes_read::.acctest.convolution0_dma      1769472                       # Number of bytes read from this memory
system.acctest.elem_matrix0_spm.bytes_read::.acctest.elem_matrix0.system.acctest.elem_matrix0      8978444                       # Number of bytes read from this memory
system.acctest.elem_matrix0_spm.bytes_read::.acctest.elem_matrix0_dma      4128768                       # Number of bytes read from this memory
system.acctest.elem_matrix0_spm.bytes_read::.acctest.harris_non_max0_dma       196608                       # Number of bytes read from this memory
system.acctest.elem_matrix0_spm.bytes_read::total     15597580                       # Number of bytes read from this memory
system.acctest.elem_matrix0_spm.bytes_written::.acctest.elem_matrix0.system.acctest.elem_matrix0      5439488                       # Number of bytes written to this memory
system.acctest.elem_matrix0_spm.bytes_written::.acctest.elem_matrix0_dma      8126476                       # Number of bytes written to this memory
system.acctest.elem_matrix0_spm.bytes_written::total     13565964                       # Number of bytes written to this memory
system.acctest.elem_matrix0_spm.num_reads::.acctest.canny_non_max0_dma        16384                       # Number of read requests responded to by this memory
system.acctest.elem_matrix0_spm.num_reads::.acctest.convolution0_dma        55296                       # Number of read requests responded to by this memory
system.acctest.elem_matrix0_spm.num_reads::.acctest.elem_matrix0.system.acctest.elem_matrix0      2244611                       # Number of read requests responded to by this memory
system.acctest.elem_matrix0_spm.num_reads::.acctest.elem_matrix0_dma       129024                       # Number of read requests responded to by this memory
system.acctest.elem_matrix0_spm.num_reads::.acctest.harris_non_max0_dma         6144                       # Number of read requests responded to by this memory
system.acctest.elem_matrix0_spm.num_reads::total      2451459                       # Number of read requests responded to by this memory
system.acctest.elem_matrix0_spm.num_writes::.acctest.elem_matrix0.system.acctest.elem_matrix0      1359872                       # Number of write requests responded to by this memory
system.acctest.elem_matrix0_spm.num_writes::.acctest.elem_matrix0_dma       253955                       # Number of write requests responded to by this memory
system.acctest.elem_matrix0_spm.num_writes::total      1613827                       # Number of write requests responded to by this memory
system.acctest.elem_matrix0_spm.bw_read::.acctest.canny_non_max0_dma      6710985                       # Total read bandwidth from this memory (bytes/s)
system.acctest.elem_matrix0_spm.bw_read::.acctest.convolution0_dma     22649574                       # Total read bandwidth from this memory (bytes/s)
system.acctest.elem_matrix0_spm.bw_read::.acctest.elem_matrix0.system.acctest.elem_matrix0    114925772                       # Total read bandwidth from this memory (bytes/s)
system.acctest.elem_matrix0_spm.bw_read::.acctest.elem_matrix0_dma     52849007                       # Total read bandwidth from this memory (bytes/s)
system.acctest.elem_matrix0_spm.bw_read::.acctest.harris_non_max0_dma      2516619                       # Total read bandwidth from this memory (bytes/s)
system.acctest.elem_matrix0_spm.bw_read::total    199651958                       # Total read bandwidth from this memory (bytes/s)
system.acctest.elem_matrix0_spm.bw_write::.acctest.elem_matrix0.system.acctest.elem_matrix0     69626470                       # Write bandwidth from this memory (bytes/s)
system.acctest.elem_matrix0_spm.bw_write::.acctest.elem_matrix0_dma    104020421                       # Write bandwidth from this memory (bytes/s)
[...]
system.cpu.icache.ReadReq_miss_latency::total     11863125                       # number of ReadReq miss cycles
system.cpu.icache.ReadReq_accesses::.cpu.inst       131726                       # number of ReadReq accesses(hits+misses)
system.cpu.icache.ReadReq_accesses::total       131726                       # number of ReadReq accesses(hits+misses)
system.cpu.icache.ReadReq_miss_rate::.cpu.inst     0.002072                       # miss rate for ReadReq accesses
system.cpu.icache.ReadReq_miss_rate::total     0.002072                       # miss rate for ReadReq accesses
system.cpu.icache.ReadReq_avg_miss_latency::.cpu.inst 43454.670330                       # average ReadReq miss latency
system.cpu.icache.ReadReq_avg_miss_latency::total 43454.670330                       # average ReadReq miss latency
system.cpu.icache.ReadReq_mshr_misses::.cpu.inst          273                       # number of ReadReq MSHR misses
system.cpu.icache.ReadReq_mshr_misses::total          273                       # number of ReadReq MSHR misses
system.cpu.icache.ReadReq_mshr_miss_latency::.cpu.inst     11429625                       # number of ReadReq MSHR miss cycles
system.cpu.icache.ReadReq_mshr_miss_latency::total     11429625                       # number of ReadReq MSHR miss cycles
system.cpu.icache.ReadReq_mshr_miss_rate::.cpu.inst     0.002072                       # mshr miss rate for ReadReq accesses
system.cpu.icache.ReadReq_mshr_miss_rate::total     0.002072                       # mshr miss rate for ReadReq accesses
system.cpu.icache.ReadReq_avg_mshr_miss_latency::.cpu.inst 41866.758242                       # average ReadReq mshr miss latency
system.cpu.icache.ReadReq_avg_mshr_miss_latency::total 41866.758242                       # average ReadReq mshr miss latency
system.cpu.icache.tags.pwrStateResidencyTicks::UNDEFINED  82377870000                       # Cumulative time (in ticks) in various power states
system.cpu.icache.tags.tagsinuse           418.037895                       # Cycle average of tags in use
system.cpu.icache.tags.total_refs             1121643                       # Total number of references to valid blocks.
system.cpu.icache.tags.sampled_refs               524                       # Sample count of references to valid blocks.
system.cpu.icache.tags.avg_refs           2140.540076                       # Average number of references to valid blocks.
system.cpu.icache.tags.warmup_cycle                 0                       # Cycle when the warmup percentage was hit.
system.cpu.icache.tags.occ_blocks::.cpu.inst   418.037895                       # Average occupied blocks per requestor
system.cpu.icache.tags.occ_percent::.cpu.inst     0.816480                       # Average percentage of cache occupancy
system.cpu.icache.tags.occ_percent::total     0.816480                       # Average percentage of cache occupancy
system.cpu.icache.tags.occ_task_id_blocks::1024          425                       # Occupied blocks per task id
system.cpu.icache.tags.age_task_id_blocks_1024::0            3                       # Occupied blocks per task id
system.cpu.icache.tags.age_task_id_blocks_1024::3            1                       # Occupied blocks per task id
system.cpu.icache.tags.age_task_id_blocks_1024::4          421                       # Occupied blocks per task id
system.cpu.icache.tags.occ_task_id_percent::1024     0.830078                       # Percentage of cache occupancy per task id
system.cpu.icache.tags.tag_accesses            263725                       # Number of tag accesses
system.cpu.icache.tags.data_accesses           263725                       # Number of data accesses
system.cpu.dtb.walker.pwrStateResidencyTicks::UNDEFINED  82377870000                       # Cumulative time (in ticks) in various power states
system.cpu.dtb.stage2_mmu.stage2_tlb.walker.pwrStateResidencyTicks::UNDEFINED  82377870000                       # Cumulative time (in ticks) in various power states
system.cpu.dcache.pwrStateResidencyTicks::UNDEFINED  82377870000                       # Cumulative time (in ticks) in various power states
system.cpu.dcache.demand_hits::.cpu.data       162752                       # number of demand (read+write) hits
system.cpu.dcache.demand_hits::total           162752                       # number of demand (read+write) hits
system.cpu.dcache.overall_hits::.cpu.data       162752                       # number of overall hits
system.cpu.dcache.overall_hits::total          162752                       # number of overall hits
system.cpu.dcache.demand_misses::.cpu.data          949                       # number of demand (read+write) misses
system.cpu.dcache.demand_misses::total            949                       # number of demand (read+write) misses
system.cpu.dcache.overall_misses::.cpu.data          949                       # number of overall misses
system.cpu.dcache.overall_misses::total           949                       # number of overall misses
system.cpu.dcache.demand_miss_latency::.cpu.data     70942000                       # number of demand (read+write) miss cycles
system.cpu.dcache.demand_miss_latency::total     70942000                       # number of demand (read+write) miss cycles
system.cpu.dcache.overall_miss_latency::.cpu.data     70942000                       # number of overall miss cycles
system.cpu.dcache.overall_miss_latency::total     70942000                       # number of overall miss cycles
system.cpu.dcache.demand_accesses::.cpu.data       163701                       # number of demand (read+write) accesses
system.cpu.dcache.demand_accesses::total       163701                       # number of demand (read+write) accesses
system.cpu.dcache.overall_accesses::.cpu.data       163701                       # number of overall (read+write) accesses
system.cpu.dcache.overall_accesses::total       163701                       # number of overall (read+write) accesses
system.cpu.dcache.demand_miss_rate::.cpu.data     0.005797                       # miss rate for demand accesses
system.cpu.dcache.demand_miss_rate::total     0.005797                       # miss rate for demand accesses
system.cpu.dcache.overall_miss_rate::.cpu.data     0.005797                       # miss rate for overall accesses
system.cpu.dcache.overall_miss_rate::total     0.005797                       # miss rate for overall accesses
system.cpu.dcache.demand_avg_miss_latency::.cpu.data 74754.478398                       # average overall miss latency
system.cpu.dcache.demand_avg_miss_latency::total 74754.478398                       # average overall miss latency
system.cpu.dcache.overall_avg_miss_latency::.cpu.data 74754.478398                       # average overall miss latency
system.cpu.dcache.overall_avg_miss_latency::total 74754.478398                       # average overall miss latency
system.cpu.dcache.blocked_cycles::no_mshrs            0                       # number of cycles access was blocked
system.cpu.dcache.blocked_cycles::no_targets            0                       # number of cycles access was blocked
system.cpu.dcache.blocked::no_mshrs                 0                       # number of cycles access was blocked
system.cpu.dcache.blocked::no_targets               0                       # number of cycles access was blocked
system.cpu.dcache.avg_blocked_cycles::no_mshrs          nan                       # average number of cycles each access was blocked
system.cpu.dcache.avg_blocked_cycles::no_targets          nan                       # average number of cycles each access was blocked
system.cpu.dcache.writebacks::.writebacks          386                       # number of writebacks
system.cpu.dcache.writebacks::total               386                       # number of writebacks
system.cpu.dcache.demand_mshr_hits::.cpu.data          163                       # number of demand (read+write) MSHR hits
system.cpu.dcache.demand_mshr_hits::total          163                       # number of demand (read+write) MSHR hits
system.cpu.dcache.overall_mshr_hits::.cpu.data          163                       # number of overall MSHR hits
system.cpu.dcache.overall_mshr_hits::total          163                       # number of overall MSHR hits
system.cpu.dcache.demand_mshr_misses::.cpu.data          786                       # number of demand (read+write) MSHR misses
system.cpu.dcache.demand_mshr_misses::total          786                       # number of demand (read+write) MSHR misses
system.cpu.dcache.overall_mshr_misses::.cpu.data          786                       # number of overall MSHR misses
system.cpu.dcache.overall_mshr_misses::total          786                       # number of overall MSHR misses
system.cpu.dcache.overall_mshr_uncacheable_misses::.cpu.data         5503                       # number of overall MSHR uncacheable misses
system.cpu.dcache.overall_mshr_uncacheable_misses::total         5503                       # number of overall MSHR uncacheable misses
system.cpu.dcache.demand_mshr_miss_latency::.cpu.data     58128375                       # number of demand (read+write) MSHR miss cycles
system.cpu.dcache.demand_mshr_miss_latency::total     58128375                       # number of demand (read+write) MSHR miss cycles
system.cpu.dcache.overall_mshr_miss_latency::.cpu.data     58128375                       # number of overall MSHR miss cycles
system.cpu.dcache.overall_mshr_miss_latency::total     58128375                       # number of overall MSHR miss cycles
system.cpu.dcache.overall_mshr_uncacheable_latency::.cpu.data     12270250                       # number of overall MSHR uncacheable cycles
system.cpu.dcache.overall_mshr_uncacheable_latency::total     12270250                       # number of overall MSHR uncacheable cycles
system.cpu.dcache.demand_mshr_miss_rate::.cpu.data     0.004801                       # mshr miss rate for demand accesses
system.cpu.dcache.demand_mshr_miss_rate::total     0.004801                       # mshr miss rate for demand accesses
system.cpu.dcache.overall_mshr_miss_rate::.cpu.data     0.004801                       # mshr miss rate for overall accesses
system.cpu.dcache.overall_mshr_miss_rate::total     0.004801                       # mshr miss rate for overall accesses
system.cpu.dcache.demand_avg_mshr_miss_latency::.cpu.data 73954.675573                       # average overall mshr miss latency
system.cpu.dcache.demand_avg_mshr_miss_latency::total 73954.675573                       # average overall mshr miss latency
system.cpu.dcache.overall_avg_mshr_miss_latency::.cpu.data 73954.675573                       # average overall mshr miss latency
system.cpu.dcache.overall_avg_mshr_miss_latency::total 73954.675573                       # average overall mshr miss latency
system.cpu.dcache.overall_avg_mshr_uncacheable_latency::.cpu.data  2229.738325                       # average overall mshr uncacheable latency
system.cpu.dcache.overall_avg_mshr_uncacheable_latency::total  2229.738325                       # average overall mshr uncacheable latency
system.cpu.dcache.replacements                    786                       # number of replacements
system.cpu.dcache.ReadReq_hits::.cpu.data       101918                       # number of ReadReq hits
system.cpu.dcache.ReadReq_hits::total          101918                       # number of ReadReq hits
system.cpu.dcache.ReadReq_misses::.cpu.data          581                       # number of ReadReq misses
system.cpu.dcache.ReadReq_misses::total           581                       # number of ReadReq misses
system.cpu.dcache.ReadReq_miss_latency::.cpu.data     43726250                       # number of ReadReq miss cycles
system.cpu.dcache.ReadReq_miss_latency::total     43726250                       # number of ReadReq miss cycles
system.cpu.dcache.ReadReq_accesses::.cpu.data       102499                       # number of ReadReq accesses(hits+misses)
system.cpu.dcache.ReadReq_accesses::total       102499                       # number of ReadReq accesses(hits+misses)
system.cpu.dcache.ReadReq_miss_rate::.cpu.data     0.005668                       # miss rate for ReadReq accesses
system.cpu.dcache.ReadReq_miss_rate::total     0.005668                       # miss rate for ReadReq accesses
system.cpu.dcache.ReadReq_avg_miss_latency::.cpu.data 75260.327022                       # average ReadReq miss latency
system.cpu.dcache.ReadReq_avg_miss_latency::total 75260.327022                       # average ReadReq miss latency
system.cpu.dcache.ReadReq_mshr_hits::.cpu.data            5                       # number of ReadReq MSHR hits
system.cpu.dcache.ReadReq_mshr_hits::total            5                       # number of ReadReq MSHR hits
system.cpu.dcache.ReadReq_mshr_misses::.cpu.data          576                       # number of ReadReq MSHR misses
system.cpu.dcache.ReadReq_mshr_misses::total          576                       # number of ReadReq MSHR misses
system.cpu.dcache.ReadReq_mshr_uncacheable::.cpu.data          567                       # number of ReadReq MSHR uncacheable
system.cpu.dcache.ReadReq_mshr_uncacheable::total          567                       # number of ReadReq MSHR uncacheable
system.cpu.dcache.ReadReq_mshr_miss_latency::.cpu.data     42755000                       # number of ReadReq MSHR miss cycles
system.cpu.dcache.ReadReq_mshr_miss_latency::total     42755000                       # number of ReadReq MSHR miss cycles
system.cpu.dcache.ReadReq_mshr_uncacheable_latency::.cpu.data     12270250                       # number of ReadReq MSHR uncacheable cycles
system.cpu.dcache.ReadReq_mshr_uncacheable_latency::total     12270250                       # number of ReadReq MSHR uncacheable cycles
system.cpu.dcache.ReadReq_mshr_miss_rate::.cpu.data     0.005620                       # mshr miss rate for ReadReq accesses
system.cpu.dcache.ReadReq_mshr_miss_rate::total     0.005620                       # mshr miss rate for ReadReq accesses
system.cpu.dcache.ReadReq_avg_mshr_miss_latency::.cpu.data 74227.430556                       # average ReadReq mshr miss latency
system.cpu.dcache.ReadReq_avg_mshr_miss_latency::total 74227.430556                       # average ReadReq mshr miss latency
system.cpu.dcache.ReadReq_avg_mshr_uncacheable_latency::.cpu.data 21640.652557                       # average ReadReq mshr uncacheable latency
system.cpu.dcache.ReadReq_avg_mshr_uncacheable_latency::total 21640.652557                       # average ReadReq mshr uncacheable latency
system.cpu.dcache.WriteReq_hits::.cpu.data        60834                       # number of WriteReq hits
system.cpu.dcache.WriteReq_hits::total          60834                       # number of WriteReq hits
system.cpu.dcache.WriteReq_misses::.cpu.data          368                       # number of WriteReq misses
system.cpu.dcache.WriteReq_misses::total          368                       # number of WriteReq misses
system.cpu.dcache.WriteReq_miss_latency::.cpu.data     27215750                       # number of WriteReq miss cycles
system.cpu.dcache.WriteReq_miss_latency::total     27215750                       # number of WriteReq miss cycles
system.cpu.dcache.WriteReq_accesses::.cpu.data        61202                       # number of WriteReq accesses(hits+misses)
system.cpu.dcache.WriteReq_accesses::total        61202                       # number of WriteReq accesses(hits+misses)
system.cpu.dcache.WriteReq_miss_rate::.cpu.data     0.006013                       # miss rate for WriteReq accesses
system.cpu.dcache.WriteReq_miss_rate::total     0.006013                       # miss rate for WriteReq accesses
system.cpu.dcache.WriteReq_avg_miss_latency::.cpu.data 73955.842391                       # average WriteReq miss latency
system.cpu.dcache.WriteReq_avg_miss_latency::total 73955.842391                       # average WriteReq miss latency
system.cpu.dcache.WriteReq_mshr_hits::.cpu.data          158                       # number of WriteReq MSHR hits
system.cpu.dcache.WriteReq_mshr_hits::total          158                       # number of WriteReq MSHR hits
system.cpu.dcache.WriteReq_mshr_misses::.cpu.data          210                       # number of WriteReq MSHR misses
system.cpu.dcache.WriteReq_mshr_misses::total          210                       # number of WriteReq MSHR misses
system.cpu.dcache.WriteReq_mshr_uncacheable::.cpu.data         4936                       # number of WriteReq MSHR uncacheable
system.cpu.dcache.WriteReq_mshr_uncacheable::total         4936                       # number of WriteReq MSHR uncacheable
system.cpu.dcache.WriteReq_mshr_miss_latency::.cpu.data     15373375                       # number of WriteReq MSHR miss cycles
system.cpu.dcache.WriteReq_mshr_miss_latency::total     15373375                       # number of WriteReq MSHR miss cycles
system.cpu.dcache.WriteReq_mshr_miss_rate::.cpu.data     0.003431                       # mshr miss rate for WriteReq accesses
system.cpu.dcache.WriteReq_mshr_miss_rate::total     0.003431                       # mshr miss rate for WriteReq accesses
system.cpu.dcache.WriteReq_avg_mshr_miss_latency::.cpu.data 73206.547619                       # average WriteReq mshr miss latency
system.cpu.dcache.WriteReq_avg_mshr_miss_latency::total 73206.547619                       # average WriteReq mshr miss latency
system.cpu.dcache.tags.pwrStateResidencyTicks::UNDEFINED  82377870000                       # Cumulative time (in ticks) in various power states
system.cpu.dcache.tags.tagsinuse                  512                       # Cycle average of tags in use
system.cpu.dcache.tags.total_refs              176548                       # Total number of references to valid blocks.
system.cpu.dcache.tags.sampled_refs              1298                       # Sample count of references to valid blocks.
system.cpu.dcache.tags.avg_refs            136.015408                       # Average number of references to valid blocks.
system.cpu.dcache.tags.warmup_cycle                 0                       # Cycle when the warmup percentage was hit.
system.cpu.dcache.tags.occ_blocks::.cpu.data          512                       # Average occupied blocks per requestor
system.cpu.dcache.tags.occ_percent::.cpu.data            1                       # Average percentage of cache occupancy
system.cpu.dcache.tags.occ_percent::total            1                       # Average percentage of cache occupancy
system.cpu.dcache.tags.occ_task_id_blocks::1024          512                       # Occupied blocks per task id
system.cpu.dcache.tags.age_task_id_blocks_1024::0            2                       # Occupied blocks per task id
system.cpu.dcache.tags.age_task_id_blocks_1024::1            5                       # Occupied blocks per task id
system.cpu.dcache.tags.age_task_id_blocks_1024::2           12                       # Occupied blocks per task id
system.cpu.dcache.tags.age_task_id_blocks_1024::3           75                       # Occupied blocks per task id
system.cpu.dcache.tags.age_task_id_blocks_1024::4          418                       # Occupied blocks per task id
system.cpu.dcache.tags.occ_task_id_percent::1024            1                       # Percentage of cache occupancy per task id
system.cpu.dcache.tags.tag_accesses            655590                       # Number of tag accesses
system.cpu.dcache.tags.data_accesses           655590                       # Number of data accesses
system.cpu.itb.walker.pwrStateResidencyTicks::UNDEFINED  82377870000                       # Cumulative time (in ticks) in various power states
system.cpu.itb.stage2_mmu.stage2_tlb.walker.pwrStateResidencyTicks::UNDEFINED  82377870000                       # Cumulative time (in ticks) in various power states

---------- End Simulation Statistics   ----------
