gem5 Simulator System.  http://gem5.org
gem5 is copyrighted software; use the --copyright option for details.

gem5 compiled Oct 10 2023 12:27:58
gem5 started Oct 26 2023 14:22:14
gem5 executing on node4x10a.cs.rochester.edu, pid 49819
command line: /u/sgupta45/gem5-SALAM/build/ARM/gem5_bus.opt --debug-flags=HWACC,CommInterface,LLVMInterface,StreamDma,NoncoherentDma,TickTimer,SchedulerStats --outdir=BM_ARM_OUT/comb_2_opt_repeat_10_min_3/canny_1_deblur_0_gru_0_harris_1_lstm_0_FCFS configs/SALAM/scheduler.py --mem-size=4GB --mem-type=LPDDR5_6400_1x16_BG_BL32 --kernel=/u/sgupta45/gem5-SALAM/benchmarks/scheduler/sw/bin_comb_2_repeat_10_min_3/canny_1_deblur_0_gru_0_harris_1_lstm_0_FCFS.elf --vans-config-path=/u/sgupta45/VANS/config --disk-image=/u/sgupta45/gem5-SALAM/baremetal/common/fake.iso --machine-type=VExpress_GEM5_V1 --dtb-file=none --bare-metal --cpu-type=ex5_LITTLE --cpu-clock=1.6GHz --accpath=/u/sgupta45/gem5-SALAM/benchmarks --caches --cacheline_size=64 --l1d_size=32kB --l1d_assoc=4 --l1i_size=32kB --l1i_assoc=2

Global frequency set at 1000000000000 ticks per second
Cycle Counts Loaded!
Cycle Counts Loaded!
Cycle Counts Loaded!
Cycle Counts Loaded!
Cycle Counts Loaded!
Cycle Counts Loaded!
Cycle Counts Loaded!
Cycle Counts Loaded!
Cycle Counts Loaded!
Cycle Counts Loaded!
Cycle Counts Loaded!
**** REAL SIMULATION ****
3925625: global: Timer #8 started at tick 3925625
7355625: global: Timer #8 stopped at tick 7355625. Duration: 3430000
7425625: global: Timer #8 started at tick 7425625
16784375: global: Timer #8 stopped at tick 16784375. Duration: 9358750
17241250: global: Timer #8 started at tick 17241250
29692500: global: Timer #8 stopped at tick 29692500. Duration: 12451250
30560000: global: Timer #8 started at tick 30560000
30644375: global: Timer #8 stopped at tick 30644375. Duration: 84375
30670625: global: Timer #8 started at tick 30670625
43134375: global: Timer #8 stopped at tick 43134375. Duration: 12463750
46220625: global: Timer #8 started at tick 46220625
46293125: global: Timer #8 stopped at tick 46293125. Duration: 72500
46318750: global: Timer #8 started at tick 46318750
46348125: global: Timer #8 stopped at tick 46348125. Duration: 29375
46405625: global: Timer #8 started at tick 46405625
58869375: global: Timer #8 stopped at tick 58869375. Duration: 12463750
58928125: global: Timer #8 started at tick 58928125
71391250: global: Timer #8 stopped at tick 71391250. Duration: 12463125
71409375: global: Timer #8 started at tick 71409375
83871250: global: Timer #8 stopped at tick 83871250. Duration: 12461875
83888750: global: Timer #8 started at tick 83888750
96347500: global: Timer #8 stopped at tick 96347500. Duration: 12458750
96364375: global: Timer #8 started at tick 96364375
108821250: global: Timer #8 stopped at tick 108821250. Duration: 12456875
108838125: global: Timer #8 started at tick 108838125
121296250: global: Timer #8 stopped at tick 121296250. Duration: 12458125
121315000: global: Timer #8 started at tick 121315000
133770625: global: Timer #8 stopped at tick 133770625. Duration: 12455625
134290625: global: Timer #8 started at tick 134290625
146747500: global: Timer #8 stopped at tick 146747500. Duration: 12456875
147366875: global: Timer #8 started at tick 147366875
150501250: global: Timer #8 stopped at tick 150501250. Duration: 3134375
151010625: global: Timer #8 started at tick 151010625
154251250: global: Timer #8 stopped at tick 154251250. Duration: 3240625
154293125: global: Timer #8 started at tick 154293125
163642500: global: Timer #8 stopped at tick 163642500. Duration: 9349375
163978750: global: Timer #8 started at tick 163978750
176425625: global: Timer #8 stopped at tick 176425625. Duration: 12446875
177056875: global: Timer #8 started at tick 177056875
177149375: global: Timer #8 stopped at tick 177149375. Duration: 92500
177158750: global: Timer #8 started at tick 177158750
189614375: global: Timer #8 stopped at tick 189614375. Duration: 12455625
192233750: global: Timer #8 started at tick 192233750
192265625: global: Timer #8 stopped at tick 192265625. Duration: 31875
192278750: global: Timer #8 started at tick 192278750
192308125: global: Timer #8 stopped at tick 192308125. Duration: 29375
192317500: global: Timer #8 started at tick 192317500
204772500: global: Timer #8 stopped at tick 204772500. Duration: 12455000
204781875: global: Timer #8 started at tick 204781875
217227500: global: Timer #8 stopped at tick 217227500. Duration: 12445625
217236875: global: Timer #8 started at tick 217236875
229682500: global: Timer #8 stopped at tick 229682500. Duration: 12445625
229691875: global: Timer #8 started at tick 229691875
242137500: global: Timer #8 stopped at tick 242137500. Duration: 12445625
242146875: global: Timer #8 started at tick 242146875
254592500: global: Timer #8 stopped at tick 254592500. Duration: 12445625
254601875: global: Timer #8 started at tick 254601875
267047500: global: Timer #8 stopped at tick 267047500. Duration: 12445625
267056875: global: Timer #8 started at tick 267056875
279507500: global: Timer #8 stopped at tick 279507500. Duration: 12450625
279942500: global: Timer #8 started at tick 279942500
292401250: global: Timer #8 stopped at tick 292401250. Duration: 12458750
292823125: global: Timer #8 started at tick 292823125
295952500: global: Timer #8 stopped at tick 295952500. Duration: 3129375
296413750: global: Timer #8 started at tick 296413750
299651250: global: Timer #8 stopped at tick 299651250. Duration: 3237500
299660625: global: Timer #8 started at tick 299660625
309002500: global: Timer #8 stopped at tick 309002500. Duration: 9341875
309338750: global: Timer #8 started at tick 309338750
321785625: global: Timer #8 stopped at tick 321785625. Duration: 12446875
322586250: global: Timer #8 started at tick 322586250
322630625: global: Timer #8 stopped at tick 322630625. Duration: 44375
322640000: global: Timer #8 started at tick 322640000
335096250: global: Timer #8 stopped at tick 335096250. Duration: 12456250
337762500: global: Timer #8 started at tick 337762500
337794375: global: Timer #8 stopped at tick 337794375. Duration: 31875
337807500: global: Timer #8 started at tick 337807500
337836875: global: Timer #8 stopped at tick 337836875. Duration: 29375
337846250: global: Timer #8 started at tick 337846250
350301250: global: Timer #8 stopped at tick 350301250. Duration: 12455000
350310625: global: Timer #8 started at tick 350310625
362761250: global: Timer #8 stopped at tick 362761250. Duration: 12450625
362770625: global: Timer #8 started at tick 362770625
375221250: global: Timer #8 stopped at tick 375221250. Duration: 12450625
375230625: global: Timer #8 started at tick 375230625
387681250: global: Timer #8 stopped at tick 387681250. Duration: 12450625
387690625: global: Timer #8 started at tick 387690625
400141250: global: Timer #8 stopped at tick 400141250. Duration: 12450625
400150625: global: Timer #8 started at tick 400150625
412600625: global: Timer #8 stopped at tick 412600625. Duration: 12450000
412610000: global: Timer #8 started at tick 412610000
425061250: global: Timer #8 stopped at tick 425061250. Duration: 12451250
425402500: global: Timer #8 started at tick 425402500
437847500: global: Timer #8 stopped at tick 437847500. Duration: 12445000
438268750: global: Timer #8 started at tick 438268750
441391250: global: Timer #8 stopped at tick 441391250. Duration: 3122500
441836250: global: Timer #8 started at tick 441836250
445065625: global: Timer #8 stopped at tick 445065625. Duration: 3229375
445075000: global: Timer #8 started at tick 445075000
454413750: global: Timer #8 stopped at tick 454413750. Duration: 9338750
454767500: global: Timer #8 started at tick 454767500
467213750: global: Timer #8 stopped at tick 467213750. Duration: 12446250
467826250: global: Timer #8 started at tick 467826250
467870625: global: Timer #8 stopped at tick 467870625. Duration: 44375
467880000: global: Timer #8 started at tick 467880000
480327500: global: Timer #8 stopped at tick 480327500. Duration: 12447500
483115625: global: Timer #8 started at tick 483115625
483141250: global: Timer #8 stopped at tick 483141250. Duration: 25625
483155625: global: Timer #8 started at tick 483155625
483185000: global: Timer #8 stopped at tick 483185000. Duration: 29375
483194375: global: Timer #8 started at tick 483194375
495642500: global: Timer #8 stopped at tick 495642500. Duration: 12448125
495651875: global: Timer #8 started at tick 495651875
508097500: global: Timer #8 stopped at tick 508097500. Duration: 12445625
508106875: global: Timer #8 started at tick 508106875
520552500: global: Timer #8 stopped at tick 520552500. Duration: 12445625
520561875: global: Timer #8 started at tick 520561875
533007500: global: Timer #8 stopped at tick 533007500. Duration: 12445625
533016875: global: Timer #8 started at tick 533016875
545462500: global: Timer #8 stopped at tick 545462500. Duration: 12445625
545471875: global: Timer #8 started at tick 545471875
557917500: global: Timer #8 stopped at tick 557917500. Duration: 12445625
557926875: global: Timer #8 started at tick 557926875
570377500: global: Timer #8 stopped at tick 570377500. Duration: 12450625
570720625: global: Timer #8 started at tick 570720625
583281250: global: Timer #8 stopped at tick 583281250. Duration: 12560625
583721250: global: Timer #8 started at tick 583721250
586847500: global: Timer #8 stopped at tick 586847500. Duration: 3126250
587293750: global: Timer #8 started at tick 587293750
590526250: global: Timer #8 stopped at tick 590526250. Duration: 3232500
590535625: global: Timer #8 started at tick 590535625
599877500: global: Timer #8 stopped at tick 599877500. Duration: 9341875
600213750: global: Timer #8 started at tick 600213750
612660625: global: Timer #8 stopped at tick 612660625. Duration: 12446875
613291250: global: Timer #8 started at tick 613291250
613335625: global: Timer #8 stopped at tick 613335625. Duration: 44375
613345000: global: Timer #8 started at tick 613345000
625792500: global: Timer #8 stopped at tick 625792500. Duration: 12447500
628403750: global: Timer #8 started at tick 628403750
628429375: global: Timer #8 stopped at tick 628429375. Duration: 25625
628443750: global: Timer #8 started at tick 628443750
628473125: global: Timer #8 stopped at tick 628473125. Duration: 29375
628482500: global: Timer #8 started at tick 628482500
640932500: global: Timer #8 stopped at tick 640932500. Duration: 12450000
640941875: global: Timer #8 started at tick 640941875
653392500: global: Timer #8 stopped at tick 653392500. Duration: 12450625
653401875: global: Timer #8 started at tick 653401875
665847500: global: Timer #8 stopped at tick 665847500. Duration: 12445625
665856875: global: Timer #8 started at tick 665856875
678302500: global: Timer #8 stopped at tick 678302500. Duration: 12445625
678311875: global: Timer #8 started at tick 678311875
690757500: global: Timer #8 stopped at tick 690757500. Duration: 12445625
690766875: global: Timer #8 started at tick 690766875
703212500: global: Timer #8 stopped at tick 703212500. Duration: 12445625
703221875: global: Timer #8 started at tick 703221875
715672500: global: Timer #8 stopped at tick 715672500. Duration: 12450625
716015000: global: Timer #8 started at tick 716015000
728462500: global: Timer #8 stopped at tick 728462500. Duration: 12447500
728886250: global: Timer #8 started at tick 728886250
732012500: global: Timer #8 stopped at tick 732012500. Duration: 3126250
732458750: global: Timer #8 started at tick 732458750
735691250: global: Timer #8 stopped at tick 735691250. Duration: 3232500
735700625: global: Timer #8 started at tick 735700625
745042500: global: Timer #8 stopped at tick 745042500. Duration: 9341875
745378750: global: Timer #8 started at tick 745378750
757825625: global: Timer #8 stopped at tick 757825625. Duration: 12446875
758438750: global: Timer #8 started at tick 758438750
758513125: global: Timer #8 stopped at tick 758513125. Duration: 74375
758522500: global: Timer #8 started at tick 758522500
770974375: global: Timer #8 stopped at tick 770974375. Duration: 12451875
773760625: global: Timer #8 started at tick 773760625
773786250: global: Timer #8 stopped at tick 773786250. Duration: 25625
773800625: global: Timer #8 started at tick 773800625
773830000: global: Timer #8 stopped at tick 773830000. Duration: 29375
773839375: global: Timer #8 started at tick 773839375
786287500: global: Timer #8 stopped at tick 786287500. Duration: 12448125
786296875: global: Timer #8 started at tick 786296875
798742500: global: Timer #8 stopped at tick 798742500. Duration: 12445625
798751875: global: Timer #8 started at tick 798751875
811197500: global: Timer #8 stopped at tick 811197500. Duration: 12445625
811206875: global: Timer #8 started at tick 811206875
823652500: global: Timer #8 stopped at tick 823652500. Duration: 12445625
823661875: global: Timer #8 started at tick 823661875
836107500: global: Timer #8 stopped at tick 836107500. Duration: 12445625
836116875: global: Timer #8 started at tick 836116875
848562500: global: Timer #8 stopped at tick 848562500. Duration: 12445625
848571875: global: Timer #8 started at tick 848571875
861022500: global: Timer #8 stopped at tick 861022500. Duration: 12450625
861365000: global: Timer #8 started at tick 861365000
873812500: global: Timer #8 stopped at tick 873812500. Duration: 12447500
874236250: global: Timer #8 started at tick 874236250
877362500: global: Timer #8 stopped at tick 877362500. Duration: 3126250
877808750: global: Timer #8 started at tick 877808750
881041250: global: Timer #8 stopped at tick 881041250. Duration: 3232500
881050625: global: Timer #8 started at tick 881050625
890392500: global: Timer #8 stopped at tick 890392500. Duration: 9341875
890746875: global: Timer #8 started at tick 890746875
903192500: global: Timer #8 stopped at tick 903192500. Duration: 12445625
903803750: global: Timer #8 started at tick 903803750
903847500: global: Timer #8 stopped at tick 903847500. Duration: 43750
903856875: global: Timer #8 started at tick 903856875
916302500: global: Timer #8 stopped at tick 916302500. Duration: 12445625
919033750: global: Timer #8 started at tick 919033750
919059375: global: Timer #8 stopped at tick 919059375. Duration: 25625
919073750: global: Timer #8 started at tick 919073750
919103125: global: Timer #8 stopped at tick 919103125. Duration: 29375
919112500: global: Timer #8 started at tick 919112500
931562500: global: Timer #8 stopped at tick 931562500. Duration: 12450000
931571875: global: Timer #8 started at tick 931571875
944022500: global: Timer #8 stopped at tick 944022500. Duration: 12450625
944031875: global: Timer #8 started at tick 944031875
956477500: global: Timer #8 stopped at tick 956477500. Duration: 12445625
956486875: global: Timer #8 started at tick 956486875
968932500: global: Timer #8 stopped at tick 968932500. Duration: 12445625
968941875: global: Timer #8 started at tick 968941875
981387500: global: Timer #8 stopped at tick 981387500. Duration: 12445625
981396875: global: Timer #8 started at tick 981396875
993842500: global: Timer #8 stopped at tick 993842500. Duration: 12445625
993851875: global: Timer #8 started at tick 993851875
1006302500: global: Timer #8 stopped at tick 1006302500. Duration: 12450625
1006645000: global: Timer #8 started at tick 1006645000
1019092500: global: Timer #8 stopped at tick 1019092500. Duration: 12447500
1019516250: global: Timer #8 started at tick 1019516250
1022642500: global: Timer #8 stopped at tick 1022642500. Duration: 3126250
1023090625: global: Timer #8 started at tick 1023090625
1026324375: global: Timer #8 stopped at tick 1026324375. Duration: 3233750
1026333750: global: Timer #8 started at tick 1026333750
1035672500: global: Timer #8 stopped at tick 1035672500. Duration: 9338750
1036010625: global: Timer #8 started at tick 1036010625
1048457500: global: Timer #8 stopped at tick 1048457500. Duration: 12446875
1049068750: global: Timer #8 started at tick 1049068750
1049112500: global: Timer #8 stopped at tick 1049112500. Duration: 43750
1049121875: global: Timer #8 started at tick 1049121875
1061567500: global: Timer #8 stopped at tick 1061567500. Duration: 12445625
1064358750: global: Timer #8 started at tick 1064358750
1064384375: global: Timer #8 stopped at tick 1064384375. Duration: 25625
1064398750: global: Timer #8 started at tick 1064398750
1064428125: global: Timer #8 stopped at tick 1064428125. Duration: 29375
1064437500: global: Timer #8 started at tick 1064437500
1076887500: global: Timer #8 stopped at tick 1076887500. Duration: 12450000
1076896875: global: Timer #8 started at tick 1076896875
1089347500: global: Timer #8 stopped at tick 1089347500. Duration: 12450625
1089356875: global: Timer #8 started at tick 1089356875
1101802500: global: Timer #8 stopped at tick 1101802500. Duration: 12445625
1101811875: global: Timer #8 started at tick 1101811875
1114257500: global: Timer #8 stopped at tick 1114257500. Duration: 12445625
1114266875: global: Timer #8 started at tick 1114266875
1126712500: global: Timer #8 stopped at tick 1126712500. Duration: 12445625
1126721875: global: Timer #8 started at tick 1126721875
1139167500: global: Timer #8 stopped at tick 1139167500. Duration: 12445625
1139176875: global: Timer #8 started at tick 1139176875
1151627500: global: Timer #8 stopped at tick 1151627500. Duration: 12450625
1151970625: global: Timer #8 started at tick 1151970625
1164521250: global: Timer #8 stopped at tick 1164521250. Duration: 12550625
1165040000: global: Timer #8 started at tick 1165040000
1168164375: global: Timer #8 stopped at tick 1168164375. Duration: 3124375
1168811250: global: Timer #8 started at tick 1168811250
1172040625: global: Timer #8 stopped at tick 1172040625. Duration: 3229375
1172050000: global: Timer #8 started at tick 1172050000
1181388750: global: Timer #8 stopped at tick 1181388750. Duration: 9338750
1181725000: global: Timer #8 started at tick 1181725000
1194168750: global: Timer #8 stopped at tick 1194168750. Duration: 12443750
1194781250: global: Timer #8 started at tick 1194781250
1194825625: global: Timer #8 stopped at tick 1194825625. Duration: 44375
1194835000: global: Timer #8 started at tick 1194835000
1207282500: global: Timer #8 stopped at tick 1207282500. Duration: 12447500
1210040625: global: Timer #8 started at tick 1210040625
1210066250: global: Timer #8 stopped at tick 1210066250. Duration: 25625
1210080625: global: Timer #8 started at tick 1210080625
1210110000: global: Timer #8 stopped at tick 1210110000. Duration: 29375
1210119375: global: Timer #8 started at tick 1210119375
1222567500: global: Timer #8 stopped at tick 1222567500. Duration: 12448125
1222576875: global: Timer #8 started at tick 1222576875
1235022500: global: Timer #8 stopped at tick 1235022500. Duration: 12445625
1235031875: global: Timer #8 started at tick 1235031875
1247477500: global: Timer #8 stopped at tick 1247477500. Duration: 12445625
1247486875: global: Timer #8 started at tick 1247486875
1259932500: global: Timer #8 stopped at tick 1259932500. Duration: 12445625
1259941875: global: Timer #8 started at tick 1259941875
1272387500: global: Timer #8 stopped at tick 1272387500. Duration: 12445625
1272396875: global: Timer #8 started at tick 1272396875
1284842500: global: Timer #8 stopped at tick 1284842500. Duration: 12445625
1284851875: global: Timer #8 started at tick 1284851875
1297302500: global: Timer #8 stopped at tick 1297302500. Duration: 12450625
1297657500: global: Timer #8 started at tick 1297657500
1310103750: global: Timer #8 stopped at tick 1310103750. Duration: 12446250
1310526250: global: Timer #8 started at tick 1310526250
1313652500: global: Timer #8 stopped at tick 1313652500. Duration: 3126250
1314098750: global: Timer #8 started at tick 1314098750
1317331250: global: Timer #8 stopped at tick 1317331250. Duration: 3232500
1317340625: global: Timer #8 started at tick 1317340625
1326682500: global: Timer #8 stopped at tick 1326682500. Duration: 9341875
1327018750: global: Timer #8 started at tick 1327018750
1339465625: global: Timer #8 stopped at tick 1339465625. Duration: 12446875
1340096875: global: Timer #8 started at tick 1340096875
1340171250: global: Timer #8 stopped at tick 1340171250. Duration: 74375
1340180625: global: Timer #8 started at tick 1340180625
1352631250: global: Timer #8 stopped at tick 1352631250. Duration: 12450625
1355635625: global: Timer #8 started at tick 1355635625
1355661250: global: Timer #8 stopped at tick 1355661250. Duration: 25625
1355675625: global: Timer #8 started at tick 1355675625
1355705000: global: Timer #8 stopped at tick 1355705000. Duration: 29375
1355714375: global: Timer #8 started at tick 1355714375
1368162500: global: Timer #8 stopped at tick 1368162500. Duration: 12448125
1368171875: global: Timer #8 started at tick 1368171875
1380617500: global: Timer #8 stopped at tick 1380617500. Duration: 12445625
1380626875: global: Timer #8 started at tick 1380626875
1393072500: global: Timer #8 stopped at tick 1393072500. Duration: 12445625
1393081875: global: Timer #8 started at tick 1393081875
1405527500: global: Timer #8 stopped at tick 1405527500. Duration: 12445625
1405536875: global: Timer #8 started at tick 1405536875
1417982500: global: Timer #8 stopped at tick 1417982500. Duration: 12445625
1417991875: global: Timer #8 started at tick 1417991875
1430437500: global: Timer #8 stopped at tick 1430437500. Duration: 12445625
1430446875: global: Timer #8 started at tick 1430446875
1442897500: global: Timer #8 stopped at tick 1442897500. Duration: 12450625
1443240000: global: Timer #8 started at tick 1443240000
1455687500: global: Timer #8 stopped at tick 1455687500. Duration: 12447500
1456188750: global: Timer #8 started at tick 1456188750
1459311250: global: Timer #8 stopped at tick 1459311250. Duration: 3122500
1461183125: global: Timer #8 started at tick 1461183125
1464421250: global: Timer #8 stopped at tick 1464421250. Duration: 3238125
1464468750: global: Timer #8 started at tick 1464468750
1473813750: global: Timer #8 stopped at tick 1473813750. Duration: 9345000
1474259375: global: Timer #8 started at tick 1474259375
1486716250: global: Timer #8 stopped at tick 1486716250. Duration: 12456875
1487862500: global: Timer #8 started at tick 1487862500
1487932500: global: Timer #8 stopped at tick 1487932500. Duration: 70000
1487958125: global: Timer #8 started at tick 1487958125
1487993125: global: Timer #8 stopped at tick 1487993125. Duration: 35000
1488010625: global: Timer #8 started at tick 1488010625
1500467500: global: Timer #8 stopped at tick 1500467500. Duration: 12456875
1500484375: global: Timer #8 started at tick 1500484375
1512941250: global: Timer #8 stopped at tick 1512941250. Duration: 12456875
1515671875: global: Timer #8 started at tick 1515671875
1528132500: global: Timer #8 stopped at tick 1528132500. Duration: 12460625
1528150625: global: Timer #8 started at tick 1528150625
1540602500: global: Timer #8 stopped at tick 1540602500. Duration: 12451875
1540619375: global: Timer #8 started at tick 1540619375
1553076250: global: Timer #8 stopped at tick 1553076250. Duration: 12456875
1553093750: global: Timer #8 started at tick 1553093750
1565546875: global: Timer #8 stopped at tick 1565546875. Duration: 12453125
1565563750: global: Timer #8 started at tick 1565563750
1578017500: global: Timer #8 stopped at tick 1578017500. Duration: 12453750
1578035000: global: Timer #8 started at tick 1578035000
1590490625: global: Timer #8 stopped at tick 1590490625. Duration: 12455625
1590507500: global: Timer #8 started at tick 1590507500
1590554375: global: Timer #8 stopped at tick 1590554375. Duration: 46875
1593423125: global: Timer #8 started at tick 1593423125
1605886250: global: Timer #8 stopped at tick 1605886250. Duration: 12463125
1605903750: global: Timer #8 started at tick 1605903750
1618357500: global: Timer #8 stopped at tick 1618357500. Duration: 12453750
1618374375: global: Timer #8 started at tick 1618374375
1630831250: global: Timer #8 stopped at tick 1630831250. Duration: 12456875
1630888750: global: Timer #8 started at tick 1630888750
1643342500: global: Timer #8 stopped at tick 1643342500. Duration: 12453750
1643360000: global: Timer #8 started at tick 1643360000
1643394375: global: Timer #8 stopped at tick 1643394375. Duration: 34375
1643413125: global: Timer #8 started at tick 1643413125
1655872500: global: Timer #8 stopped at tick 1655872500. Duration: 12459375
1655889375: global: Timer #8 started at tick 1655889375
1668346250: global: Timer #8 stopped at tick 1668346250. Duration: 12456875
1668363125: global: Timer #8 started at tick 1668363125
1680821250: global: Timer #8 stopped at tick 1680821250. Duration: 12458125
1681351875: global: Timer #8 started at tick 1681351875
1684481250: global: Timer #8 stopped at tick 1684481250. Duration: 3129375
1685120625: global: Timer #8 started at tick 1685120625
1688350625: global: Timer #8 stopped at tick 1688350625. Duration: 3230000
1688360000: global: Timer #8 started at tick 1688360000
1697698750: global: Timer #8 stopped at tick 1697698750. Duration: 9338750
1698051875: global: Timer #8 started at tick 1698051875
1710497500: global: Timer #8 stopped at tick 1710497500. Duration: 12445625
1711418125: global: Timer #8 started at tick 1711418125
1711450625: global: Timer #8 stopped at tick 1711450625. Duration: 32500
1711460625: global: Timer #8 started at tick 1711460625
1711492500: global: Timer #8 stopped at tick 1711492500. Duration: 31875
1711502500: global: Timer #8 started at tick 1711502500
1723961250: global: Timer #8 stopped at tick 1723961250. Duration: 12458750
1723970625: global: Timer #8 started at tick 1723970625
1736421250: global: Timer #8 stopped at tick 1736421250. Duration: 12450625
1738652500: global: Timer #8 started at tick 1738652500
1751101250: global: Timer #8 stopped at tick 1751101250. Duration: 12448750
1751110625: global: Timer #8 started at tick 1751110625
1763561250: global: Timer #8 stopped at tick 1763561250. Duration: 12450625
1763570625: global: Timer #8 started at tick 1763570625
1776020625: global: Timer #8 stopped at tick 1776020625. Duration: 12450000
1776030000: global: Timer #8 started at tick 1776030000
1788481250: global: Timer #8 stopped at tick 1788481250. Duration: 12451250
1788490625: global: Timer #8 started at tick 1788490625
1800941250: global: Timer #8 stopped at tick 1800941250. Duration: 12450625
1800950625: global: Timer #8 started at tick 1800950625
1813401250: global: Timer #8 stopped at tick 1813401250. Duration: 12450625
1813411250: global: Timer #8 started at tick 1813411250
1813455000: global: Timer #8 stopped at tick 1813455000. Duration: 43750
1815621875: global: Timer #8 started at tick 1815621875
1828067500: global: Timer #8 stopped at tick 1828067500. Duration: 12445625
1828076875: global: Timer #8 started at tick 1828076875
1840522500: global: Timer #8 stopped at tick 1840522500. Duration: 12445625
1840531875: global: Timer #8 started at tick 1840531875
1852977500: global: Timer #8 stopped at tick 1852977500. Duration: 12445625
1852986875: global: Timer #8 started at tick 1852986875
1865432500: global: Timer #8 stopped at tick 1865432500. Duration: 12445625
1865442500: global: Timer #8 started at tick 1865442500
1865474375: global: Timer #8 stopped at tick 1865474375. Duration: 31875
1865487500: global: Timer #8 started at tick 1865487500
1877941250: global: Timer #8 stopped at tick 1877941250. Duration: 12453750
1877950625: global: Timer #8 started at tick 1877950625
1890401250: global: Timer #8 stopped at tick 1890401250. Duration: 12450625
1890410625: global: Timer #8 started at tick 1890410625
1902861250: global: Timer #8 stopped at tick 1902861250. Duration: 12450625
1903420625: global: Timer #8 started at tick 1903420625
1906544375: global: Timer #8 stopped at tick 1906544375. Duration: 3123750
1906959375: global: Timer #8 started at tick 1906959375
1910194375: global: Timer #8 stopped at tick 1910194375. Duration: 3235000
1910203750: global: Timer #8 started at tick 1910203750
1919542500: global: Timer #8 stopped at tick 1919542500. Duration: 9338750
1919880000: global: Timer #8 started at tick 1919880000
1932323750: global: Timer #8 stopped at tick 1932323750. Duration: 12443750
1933633125: global: Timer #8 started at tick 1933633125
1933665625: global: Timer #8 stopped at tick 1933665625. Duration: 32500
1933675625: global: Timer #8 started at tick 1933675625
1933707500: global: Timer #8 stopped at tick 1933707500. Duration: 31875
1933717500: global: Timer #8 started at tick 1933717500
1946176250: global: Timer #8 stopped at tick 1946176250. Duration: 12458750
1946185625: global: Timer #8 started at tick 1946185625
1958636250: global: Timer #8 stopped at tick 1958636250. Duration: 12450625
1961198750: global: Timer #8 started at tick 1961198750
1973642500: global: Timer #8 stopped at tick 1973642500. Duration: 12443750
1973651875: global: Timer #8 started at tick 1973651875
1986102500: global: Timer #8 stopped at tick 1986102500. Duration: 12450625
1986111875: global: Timer #8 started at tick 1986111875
1998557500: global: Timer #8 stopped at tick 1998557500. Duration: 12445625
1998566875: global: Timer #8 started at tick 1998566875
2011017500: global: Timer #8 stopped at tick 2011017500. Duration: 12450625
2011026875: global: Timer #8 started at tick 2011026875
2023472500: global: Timer #8 stopped at tick 2023472500. Duration: 12445625
2023481875: global: Timer #8 started at tick 2023481875
2035927500: global: Timer #8 stopped at tick 2035927500. Duration: 12445625
2035937500: global: Timer #8 started at tick 2035937500
2035981875: global: Timer #8 stopped at tick 2035981875. Duration: 44375
2038535000: global: Timer #8 started at tick 2038535000
2050978750: global: Timer #8 stopped at tick 2050978750. Duration: 12443750
2050988125: global: Timer #8 started at tick 2050988125
2063440625: global: Timer #8 stopped at tick 2063440625. Duration: 12452500
2063450000: global: Timer #8 started at tick 2063450000
2075897500: global: Timer #8 stopped at tick 2075897500. Duration: 12447500
2075906875: global: Timer #8 started at tick 2075906875
2088357500: global: Timer #8 stopped at tick 2088357500. Duration: 12450625
2088367500: global: Timer #8 started at tick 2088367500
2088399375: global: Timer #8 stopped at tick 2088399375. Duration: 31875
2088412500: global: Timer #8 started at tick 2088412500
2100866250: global: Timer #8 stopped at tick 2100866250. Duration: 12453750
2100875625: global: Timer #8 started at tick 2100875625
2113326250: global: Timer #8 stopped at tick 2113326250. Duration: 12450625
2113335625: global: Timer #8 started at tick 2113335625
2125786250: global: Timer #8 stopped at tick 2125786250. Duration: 12450625
2126129375: global: Timer #8 started at tick 2126129375
2129252500: global: Timer #8 stopped at tick 2129252500. Duration: 3123125
2129839375: global: Timer #8 started at tick 2129839375
2133106250: global: Timer #8 stopped at tick 2133106250. Duration: 3266875
2133115625: global: Timer #8 started at tick 2133115625
2142457500: global: Timer #8 stopped at tick 2142457500. Duration: 9341875
2142795000: global: Timer #8 started at tick 2142795000
2155238750: global: Timer #8 stopped at tick 2155238750. Duration: 12443750
2156164375: global: Timer #8 started at tick 2156164375
2156196875: global: Timer #8 stopped at tick 2156196875. Duration: 32500
2156206875: global: Timer #8 started at tick 2156206875
2156241250: global: Timer #8 stopped at tick 2156241250. Duration: 34375
2156251250: global: Timer #8 started at tick 2156251250
2168702500: global: Timer #8 stopped at tick 2168702500. Duration: 12451250
2168711875: global: Timer #8 started at tick 2168711875
2181157500: global: Timer #8 stopped at tick 2181157500. Duration: 12445625
2183606875: global: Timer #8 started at tick 2183606875
2196056250: global: Timer #8 stopped at tick 2196056250. Duration: 12449375
2196065625: global: Timer #8 started at tick 2196065625
2208516250: global: Timer #8 stopped at tick 2208516250. Duration: 12450625
2208525625: global: Timer #8 started at tick 2208525625
2220975625: global: Timer #8 stopped at tick 2220975625. Duration: 12450000
2220985000: global: Timer #8 started at tick 2220985000
2233436250: global: Timer #8 stopped at tick 2233436250. Duration: 12451250
2233445625: global: Timer #8 started at tick 2233445625
2245896250: global: Timer #8 stopped at tick 2245896250. Duration: 12450625
2245905625: global: Timer #8 started at tick 2245905625
2258356250: global: Timer #8 stopped at tick 2258356250. Duration: 12450625
2258366250: global: Timer #8 started at tick 2258366250
2258410000: global: Timer #8 stopped at tick 2258410000. Duration: 43750
2260850625: global: Timer #8 started at tick 2260850625
2273297500: global: Timer #8 stopped at tick 2273297500. Duration: 12446875
2273306875: global: Timer #8 started at tick 2273306875
2285757500: global: Timer #8 stopped at tick 2285757500. Duration: 12450625
2285766875: global: Timer #8 started at tick 2285766875
2298212500: global: Timer #8 stopped at tick 2298212500. Duration: 12445625
2298221875: global: Timer #8 started at tick 2298221875
2310667500: global: Timer #8 stopped at tick 2310667500. Duration: 12445625
2310677500: global: Timer #8 started at tick 2310677500
2310709375: global: Timer #8 stopped at tick 2310709375. Duration: 31875
2310722500: global: Timer #8 started at tick 2310722500
2323176250: global: Timer #8 stopped at tick 2323176250. Duration: 12453750
2323185625: global: Timer #8 started at tick 2323185625
2335636250: global: Timer #8 stopped at tick 2335636250. Duration: 12450625
2335645625: global: Timer #8 started at tick 2335645625
2348096250: global: Timer #8 stopped at tick 2348096250. Duration: 12450625
2348439375: global: Timer #8 started at tick 2348439375
2351562500: global: Timer #8 stopped at tick 2351562500. Duration: 3123125
2351977500: global: Timer #8 started at tick 2351977500
2355207500: global: Timer #8 stopped at tick 2355207500. Duration: 3230000
2355216875: global: Timer #8 started at tick 2355216875
2364559375: global: Timer #8 stopped at tick 2364559375. Duration: 9342500
2364896875: global: Timer #8 started at tick 2364896875
2377342500: global: Timer #8 stopped at tick 2377342500. Duration: 12445625
2378266250: global: Timer #8 started at tick 2378266250
2378298750: global: Timer #8 stopped at tick 2378298750. Duration: 32500
2378308750: global: Timer #8 started at tick 2378308750
2378335000: global: Timer #8 stopped at tick 2378335000. Duration: 26250
2378345000: global: Timer #8 started at tick 2378345000
2390792500: global: Timer #8 stopped at tick 2390792500. Duration: 12447500
2390801875: global: Timer #8 started at tick 2390801875
2403247500: global: Timer #8 stopped at tick 2403247500. Duration: 12445625
2405573750: global: Timer #8 started at tick 2405573750
2418017500: global: Timer #8 stopped at tick 2418017500. Duration: 12443750
2418026875: global: Timer #8 started at tick 2418026875
2430477500: global: Timer #8 stopped at tick 2430477500. Duration: 12450625
2430486875: global: Timer #8 started at tick 2430486875
2442932500: global: Timer #8 stopped at tick 2442932500. Duration: 12445625
2442941875: global: Timer #8 started at tick 2442941875
2455392500: global: Timer #8 stopped at tick 2455392500. Duration: 12450625
2455401875: global: Timer #8 started at tick 2455401875
2467847500: global: Timer #8 stopped at tick 2467847500. Duration: 12445625
2467856875: global: Timer #8 started at tick 2467856875
2480302500: global: Timer #8 stopped at tick 2480302500. Duration: 12445625
2480312500: global: Timer #8 started at tick 2480312500
2480356875: global: Timer #8 stopped at tick 2480356875. Duration: 44375
2482786875: global: Timer #8 started at tick 2482786875
2495232500: global: Timer #8 stopped at tick 2495232500. Duration: 12445625
2495241875: global: Timer #8 started at tick 2495241875
2507687500: global: Timer #8 stopped at tick 2507687500. Duration: 12445625
2507696875: global: Timer #8 started at tick 2507696875
2520142500: global: Timer #8 stopped at tick 2520142500. Duration: 12445625
2520151875: global: Timer #8 started at tick 2520151875
2532597500: global: Timer #8 stopped at tick 2532597500. Duration: 12445625
2532607500: global: Timer #8 started at tick 2532607500
2532639375: global: Timer #8 stopped at tick 2532639375. Duration: 31875
2532652500: global: Timer #8 started at tick 2532652500
2545106250: global: Timer #8 stopped at tick 2545106250. Duration: 12453750
2545115625: global: Timer #8 started at tick 2545115625
2557566250: global: Timer #8 stopped at tick 2557566250. Duration: 12450625
2557575625: global: Timer #8 started at tick 2557575625
2570026250: global: Timer #8 stopped at tick 2570026250. Duration: 12450625
2570370625: global: Timer #8 started at tick 2570370625
2573494375: global: Timer #8 stopped at tick 2573494375. Duration: 3123750
2574098750: global: Timer #8 started at tick 2574098750
2577330625: global: Timer #8 stopped at tick 2577330625. Duration: 3231875
2577340000: global: Timer #8 started at tick 2577340000
2586678750: global: Timer #8 stopped at tick 2586678750. Duration: 9338750
2587031875: global: Timer #8 started at tick 2587031875
2599477500: global: Timer #8 stopped at tick 2599477500. Duration: 12445625
2600401250: global: Timer #8 started at tick 2600401250
2600433750: global: Timer #8 stopped at tick 2600433750. Duration: 32500
2600443750: global: Timer #8 started at tick 2600443750
2600470000: global: Timer #8 stopped at tick 2600470000. Duration: 26250
2600480000: global: Timer #8 started at tick 2600480000
2612927500: global: Timer #8 stopped at tick 2612927500. Duration: 12447500
2612936875: global: Timer #8 started at tick 2612936875
2625382500: global: Timer #8 stopped at tick 2625382500. Duration: 12445625
2627697500: global: Timer #8 started at tick 2627697500
2640146250: global: Timer #8 stopped at tick 2640146250. Duration: 12448750
2640155625: global: Timer #8 started at tick 2640155625
2652606250: global: Timer #8 stopped at tick 2652606250. Duration: 12450625
2652615625: global: Timer #8 started at tick 2652615625
2665065625: global: Timer #8 stopped at tick 2665065625. Duration: 12450000
2665075000: global: Timer #8 started at tick 2665075000
2677526250: global: Timer #8 stopped at tick 2677526250. Duration: 12451250
2677535625: global: Timer #8 started at tick 2677535625
2689986250: global: Timer #8 stopped at tick 2689986250. Duration: 12450625
2689995625: global: Timer #8 started at tick 2689995625
2702446250: global: Timer #8 stopped at tick 2702446250. Duration: 12450625
2702456250: global: Timer #8 started at tick 2702456250
2702500000: global: Timer #8 stopped at tick 2702500000. Duration: 43750
2705130000: global: Timer #8 started at tick 2705130000
2717573750: global: Timer #8 stopped at tick 2717573750. Duration: 12443750
2717583125: global: Timer #8 started at tick 2717583125
2730035625: global: Timer #8 stopped at tick 2730035625. Duration: 12452500
2730045000: global: Timer #8 started at tick 2730045000
2742492500: global: Timer #8 stopped at tick 2742492500. Duration: 12447500
2742501875: global: Timer #8 started at tick 2742501875
2754952500: global: Timer #8 stopped at tick 2754952500. Duration: 12450625
2754962500: global: Timer #8 started at tick 2754962500
2754994375: global: Timer #8 stopped at tick 2754994375. Duration: 31875
2755007500: global: Timer #8 started at tick 2755007500
2767461250: global: Timer #8 stopped at tick 2767461250. Duration: 12453750
2767470625: global: Timer #8 started at tick 2767470625
2779921250: global: Timer #8 stopped at tick 2779921250. Duration: 12450625
2779930625: global: Timer #8 started at tick 2779930625
2792381250: global: Timer #8 stopped at tick 2792381250. Duration: 12450625
2792743125: global: Timer #8 started at tick 2792743125
2795866250: global: Timer #8 stopped at tick 2795866250. Duration: 3123125
2796281875: global: Timer #8 started at tick 2796281875
2799514375: global: Timer #8 stopped at tick 2799514375. Duration: 3232500
2799523750: global: Timer #8 started at tick 2799523750
2808862500: global: Timer #8 stopped at tick 2808862500. Duration: 9338750
2809372500: global: Timer #8 started at tick 2809372500
2821818750: global: Timer #8 stopped at tick 2821818750. Duration: 12446250
2822973125: global: Timer #8 started at tick 2822973125
2823005000: global: Timer #8 stopped at tick 2823005000. Duration: 31875
2823015000: global: Timer #8 started at tick 2823015000
2823042500: global: Timer #8 stopped at tick 2823042500. Duration: 27500
2823052500: global: Timer #8 started at tick 2823052500
2835502500: global: Timer #8 stopped at tick 2835502500. Duration: 12450000
2835511875: global: Timer #8 started at tick 2835511875
2847957500: global: Timer #8 stopped at tick 2847957500. Duration: 12445625
2850498750: global: Timer #8 started at tick 2850498750
2862942500: global: Timer #8 stopped at tick 2862942500. Duration: 12443750
2862951875: global: Timer #8 started at tick 2862951875
2875402500: global: Timer #8 stopped at tick 2875402500. Duration: 12450625
2875411875: global: Timer #8 started at tick 2875411875
2887857500: global: Timer #8 stopped at tick 2887857500. Duration: 12445625
2887866875: global: Timer #8 started at tick 2887866875
2900317500: global: Timer #8 stopped at tick 2900317500. Duration: 12450625
2900326875: global: Timer #8 started at tick 2900326875
2912772500: global: Timer #8 stopped at tick 2912772500. Duration: 12445625
2912781875: global: Timer #8 started at tick 2912781875
2925227500: global: Timer #8 stopped at tick 2925227500. Duration: 12445625
2925237500: global: Timer #8 started at tick 2925237500
2925281875: global: Timer #8 stopped at tick 2925281875. Duration: 44375
2927797500: global: Timer #8 started at tick 2927797500
2940243750: global: Timer #8 stopped at tick 2940243750. Duration: 12446250
2940253125: global: Timer #8 started at tick 2940253125
2952705625: global: Timer #8 stopped at tick 2952705625. Duration: 12452500
2952715000: global: Timer #8 started at tick 2952715000
2965162500: global: Timer #8 stopped at tick 2965162500. Duration: 12447500
2965171875: global: Timer #8 started at tick 2965171875
2977622500: global: Timer #8 stopped at tick 2977622500. Duration: 12450625
2977632500: global: Timer #8 started at tick 2977632500
2977664375: global: Timer #8 stopped at tick 2977664375. Duration: 31875
2977677500: global: Timer #8 started at tick 2977677500
2990131250: global: Timer #8 stopped at tick 2990131250. Duration: 12453750
2990140625: global: Timer #8 started at tick 2990140625
3002591250: global: Timer #8 stopped at tick 3002591250. Duration: 12450625
3002600625: global: Timer #8 started at tick 3002600625
3015051250: global: Timer #8 stopped at tick 3015051250. Duration: 12450625
3015395625: global: Timer #8 started at tick 3015395625
3018519375: global: Timer #8 stopped at tick 3018519375. Duration: 3123750
3018947500: global: Timer #8 started at tick 3018947500
3022177500: global: Timer #8 stopped at tick 3022177500. Duration: 3230000
3022186875: global: Timer #8 started at tick 3022186875
3031529375: global: Timer #8 stopped at tick 3031529375. Duration: 9342500
3031866875: global: Timer #8 started at tick 3031866875
3044312500: global: Timer #8 stopped at tick 3044312500. Duration: 12445625
3045236250: global: Timer #8 started at tick 3045236250
3045268750: global: Timer #8 stopped at tick 3045268750. Duration: 32500
3045278750: global: Timer #8 started at tick 3045278750
3045305000: global: Timer #8 stopped at tick 3045305000. Duration: 26250
3045315000: global: Timer #8 started at tick 3045315000
3057762500: global: Timer #8 stopped at tick 3057762500. Duration: 12447500
3057771875: global: Timer #8 started at tick 3057771875
3070217500: global: Timer #8 stopped at tick 3070217500. Duration: 12445625
3072717500: global: Timer #8 started at tick 3072717500
3085166250: global: Timer #8 stopped at tick 3085166250. Duration: 12448750
3085175625: global: Timer #8 started at tick 3085175625
3097626250: global: Timer #8 stopped at tick 3097626250. Duration: 12450625
3097635625: global: Timer #8 started at tick 3097635625
3110085625: global: Timer #8 stopped at tick 3110085625. Duration: 12450000
3110095000: global: Timer #8 started at tick 3110095000
3122546250: global: Timer #8 stopped at tick 3122546250. Duration: 12451250
3122555625: global: Timer #8 started at tick 3122555625
3135006250: global: Timer #8 stopped at tick 3135006250. Duration: 12450625
3135015625: global: Timer #8 started at tick 3135015625
3147466250: global: Timer #8 stopped at tick 3147466250. Duration: 12450625
3147476250: global: Timer #8 started at tick 3147476250
3147520000: global: Timer #8 stopped at tick 3147520000. Duration: 43750
3150000000: global: Timer #8 started at tick 3150000000
3162443750: global: Timer #8 stopped at tick 3162443750. Duration: 12443750
3162453125: global: Timer #8 started at tick 3162453125
3174905625: global: Timer #8 stopped at tick 3174905625. Duration: 12452500
3174915000: global: Timer #8 started at tick 3174915000
3187362500: global: Timer #8 stopped at tick 3187362500. Duration: 12447500
3187371875: global: Timer #8 started at tick 3187371875
3199822500: global: Timer #8 stopped at tick 3199822500. Duration: 12450625
3199832500: global: Timer #8 started at tick 3199832500
3199864375: global: Timer #8 stopped at tick 3199864375. Duration: 31875
3199877500: global: Timer #8 started at tick 3199877500
3212331250: global: Timer #8 stopped at tick 3212331250. Duration: 12453750
3212340625: global: Timer #8 started at tick 3212340625
3224791250: global: Timer #8 stopped at tick 3224791250. Duration: 12450625
3224800625: global: Timer #8 started at tick 3224800625
3237251250: global: Timer #8 stopped at tick 3237251250. Duration: 12450625
3237595625: global: Timer #8 started at tick 3237595625
3240719375: global: Timer #8 stopped at tick 3240719375. Duration: 3123750
3241313750: global: Timer #8 started at tick 3241313750
3244545625: global: Timer #8 stopped at tick 3244545625. Duration: 3231875
3244555000: global: Timer #8 started at tick 3244555000
3253893750: global: Timer #8 stopped at tick 3253893750. Duration: 9338750
3254228750: global: Timer #8 started at tick 3254228750
3266675000: global: Timer #8 stopped at tick 3266675000. Duration: 12446250
3267599375: global: Timer #8 started at tick 3267599375
3267631875: global: Timer #8 stopped at tick 3267631875. Duration: 32500
3267641875: global: Timer #8 started at tick 3267641875
3267669375: global: Timer #8 stopped at tick 3267669375. Duration: 27500
3267679375: global: Timer #8 started at tick 3267679375
3280127500: global: Timer #8 stopped at tick 3280127500. Duration: 12448125
3280136875: global: Timer #8 started at tick 3280136875
3292587500: global: Timer #8 stopped at tick 3292587500. Duration: 12450625
3294901875: global: Timer #8 started at tick 3294901875
3307351250: global: Timer #8 stopped at tick 3307351250. Duration: 12449375
3307360625: global: Timer #8 started at tick 3307360625
3319811250: global: Timer #8 stopped at tick 3319811250. Duration: 12450625
3319820625: global: Timer #8 started at tick 3319820625
3332270625: global: Timer #8 stopped at tick 3332270625. Duration: 12450000
3332280000: global: Timer #8 started at tick 3332280000
3344731250: global: Timer #8 stopped at tick 3344731250. Duration: 12451250
3344740625: global: Timer #8 started at tick 3344740625
3357191250: global: Timer #8 stopped at tick 3357191250. Duration: 12450625
3357200625: global: Timer #8 started at tick 3357200625
3369651250: global: Timer #8 stopped at tick 3369651250. Duration: 12450625
3369661250: global: Timer #8 started at tick 3369661250
3369705000: global: Timer #8 stopped at tick 3369705000. Duration: 43750
3372040000: global: Timer #8 started at tick 3372040000
3384483750: global: Timer #8 stopped at tick 3384483750. Duration: 12443750
3384493125: global: Timer #8 started at tick 3384493125
3396945625: global: Timer #8 stopped at tick 3396945625. Duration: 12452500
3396955000: global: Timer #8 started at tick 3396955000
3409402500: global: Timer #8 stopped at tick 3409402500. Duration: 12447500
3409411875: global: Timer #8 started at tick 3409411875
3421862500: global: Timer #8 stopped at tick 3421862500. Duration: 12450625
3421872500: global: Timer #8 started at tick 3421872500
3421904375: global: Timer #8 stopped at tick 3421904375. Duration: 31875
3421917500: global: Timer #8 started at tick 3421917500
3434371250: global: Timer #8 stopped at tick 3434371250. Duration: 12453750
3434380625: global: Timer #8 started at tick 3434380625
3446831250: global: Timer #8 stopped at tick 3446831250. Duration: 12450625
3446840625: global: Timer #8 started at tick 3446840625
3459291250: global: Timer #8 stopped at tick 3459291250. Duration: 12450625
3459634375: global: Timer #8 started at tick 3459634375
3462757500: global: Timer #8 stopped at tick 3462757500. Duration: 3123125
3463373750: global: Timer #8 started at tick 3463373750
3466605625: global: Timer #8 stopped at tick 3466605625. Duration: 3231875
3466615000: global: Timer #8 started at tick 3466615000
3475953750: global: Timer #8 stopped at tick 3475953750. Duration: 9338750
3476308750: global: Timer #8 started at tick 3476308750
3488755000: global: Timer #8 stopped at tick 3488755000. Duration: 12446250
3489679375: global: Timer #8 started at tick 3489679375
3489711875: global: Timer #8 stopped at tick 3489711875. Duration: 32500
3489721875: global: Timer #8 started at tick 3489721875
3489749375: global: Timer #8 stopped at tick 3489749375. Duration: 27500
3489759375: global: Timer #8 started at tick 3489759375
3502207500: global: Timer #8 stopped at tick 3502207500. Duration: 12448125
3502216875: global: Timer #8 started at tick 3502216875
3514667500: global: Timer #8 stopped at tick 3514667500. Duration: 12450625
3517005625: global: Timer #8 started at tick 3517005625
3529451250: global: Timer #8 stopped at tick 3529451250. Duration: 12445625
3529460625: global: Timer #8 started at tick 3529460625
3541911250: global: Timer #8 stopped at tick 3541911250. Duration: 12450625
3541920625: global: Timer #8 started at tick 3541920625
3554370625: global: Timer #8 stopped at tick 3554370625. Duration: 12450000
3554380000: global: Timer #8 started at tick 3554380000
3566831250: global: Timer #8 stopped at tick 3566831250. Duration: 12451250
3566840625: global: Timer #8 started at tick 3566840625
3579291250: global: Timer #8 stopped at tick 3579291250. Duration: 12450625
3579300625: global: Timer #8 started at tick 3579300625
3591751250: global: Timer #8 stopped at tick 3591751250. Duration: 12450625
3591761250: global: Timer #8 started at tick 3591761250
3591805000: global: Timer #8 stopped at tick 3591805000. Duration: 43750
3594076875: global: Timer #8 started at tick 3594076875
3606522500: global: Timer #8 stopped at tick 3606522500. Duration: 12445625
3606531875: global: Timer #8 started at tick 3606531875
3618977500: global: Timer #8 stopped at tick 3618977500. Duration: 12445625
3618986875: global: Timer #8 started at tick 3618986875
3631432500: global: Timer #8 stopped at tick 3631432500. Duration: 12445625
3631441875: global: Timer #8 started at tick 3631441875
3643887500: global: Timer #8 stopped at tick 3643887500. Duration: 12445625
3643897500: global: Timer #8 started at tick 3643897500
3643929375: global: Timer #8 stopped at tick 3643929375. Duration: 31875
3643942500: global: Timer #8 started at tick 3643942500
3656396250: global: Timer #8 stopped at tick 3656396250. Duration: 12453750
3656405625: global: Timer #8 started at tick 3656405625
3668856250: global: Timer #8 stopped at tick 3668856250. Duration: 12450625
3668865625: global: Timer #8 started at tick 3668865625
3681316250: global: Timer #8 stopped at tick 3681316250. Duration: 12450625
3681678125: global: Timer #8 started at tick 3681678125
3684801250: global: Timer #8 stopped at tick 3684801250. Duration: 3123125
3689282500: global: Timer #2 started at tick 3689282500
3689628750: global: Timer #2 stopped at tick 3689628750. Duration: 346250
3712703750: global: Timer #2 started at tick 3712703750
3712838125: global: Timer #2 stopped at tick 3712838125. Duration: 134375
3743788750: global: Timer #6 started at tick 3743788750
3744475625: global: Timer #7 started at tick 3744475625
3745195875: system.acctest.isp0_dma: SRC:0x0000000082092e80, DST:0x0000000027000020, LEN:16900
3745558125: global: Timer #7 stopped at tick 3745558125. Duration: 1082500
3745670000: global: Timer #6 stopped at tick 3745670000. Duration: 1881250
3745769375: global: Number of accelerators running = 1
3748457875: system.acctest.isp0_dma: Transfer completed in 3.262 us
3749019375: global: Timer #0 started at tick 3749019375
3749408125: global: Timer #6 started at tick 3749408125
3749847500: global: Timer #7 started at tick 3749847500
3750372500: global: Timer #7 stopped at tick 3750372500. Duration: 525000
3750662500: global: Timer #6 stopped at tick 3750662500. Duration: 1254375
3751010000: global: Timer #0 stopped at tick 3751010000. Duration: 1990625
3751028750: global: Number of accelerators running = 1
********************************************************************************
system.acctest.isp0.compute
   ========= Performance Analysis =============
   Setup Time:                      0.18408seconds
   Simulation Time:                 391.627seconds
   System Clock:                    1GHz
   Transistor Latency:              1ns
   Runtime:                         34882 cycles
   Runtime:                         34.882 us
   Stalls:                          1 cycles
   Executed Nodes:                  34880 cycles

********************************************************************************
   ========= Performance Analysis =================
   Setup Time:                      1.8408e+08ns
   Simulation Time:                 3.91627e+11ns
   System Clock:                    1GHz
   Transistor Latency:              0ns
   Runtime:                         34882 cycles
   Runtime:                         3.4882e-06 seconds
   Stalls:                          1 cycles
       Load Only:                   0 cycles
       Store Only:                  1 cycles
       Compute Only:                0 cycles
       Compute & Store:             0 cycles
       Load & Store:                0 cycles
       Load & Compute:              0 cycles
       Load & Compute & Store:      0 cycles
   Executed Nodes:                  34880 cycles
       Load Only:                   0 cycles
       Store Only:                  1 cycles
       Compute Only:                3453 cycles
       Compute & Store:             19014 cycles
       Load & Store:                0 cycles
       Load & Compute:              2467 cycles
       Load & Compute & Store:      9945 cycles

   ========= Runtime FU's ========= (Max | Avg) ===
   Counter FU's:                      10 | 0.118075
   Integer Add/Sub FU's:              76 | 0.082082
   Integer Mul/Div FU's:              11 | 0.043888
   Integer Shifter FU's:              42 | 0.055974
   Integer Bitwise FU's:               4 | 0.059443
   Floating Point Float Add/Sub:      53 | 0.116839
   Floating Point Double Add/Sub:      0 | 0.000000
   Floating Point Float Mul/Div:      76 | 0.625626
   Floating Point Double Mul/Div:      0 | 0.000000
   0 Cycle Compare FU's:              85 | 0.664984
   GEP Instruction FU's:              33 | 0.117424
   Type Conversion FU's:             110 | 0.379700

   ========= Static FU's ==========================
   Counter FU's:                    0
   Integer Add/Sub FU's:            0
   Integer Mul/Div FU's:            0
   Integer Shifter FU's:            0
   Integer Bitwise FU's:            0
   Floating Point Float Add/Sub:    0
   Floating Point Double Add/Sub:   0
   Floating Point Float Mul/Div:    0
   Floating Point Double Mul/Div:   0
   0 Cycle Compare FU's:            0
   GEP Instruction FU's:            0
   Type Conversion FU's:            0
   Other:                           0

   ========= Pipeline Register Usage =============
   Total Number of Registers:       1620
   Max Register Usage Per Cycle:    151
   Avg Register Usage Per Cycle:    58.744711
   Avg Register Size (Bytes):       5.073357

   ========= Memory Configuration =================
   Cache Bus Ports:                 0
   Shared Cache Size:               0kB
   Local Bus Ports:                 0
   Private SPM Size:                112kB
   Private Read Ports:              0
   Private Write Ports:             0
   Private Read Bus Width:          64
   Private Write Bus Width:         64
       Memory Reads:                0
       Memory Writes:               0
   ========= Power Analysis ======================
   FU Leakage Power:                1.637787 mW 
   FU Dynamic Power:                9.655087 mW 
   FU Total Power:                  11.292874 mW 

   Registers Leakage Power:          0.021654 mW 
   Registers Dynamic Power:          3.085961 mW 
       Register Reads (Bits):        2049133
       Register Writes (Bits):       2049168
   Registers Total Power:            3.107615 mW

   SPM Leakage Power:               0.061081 mW
   SPM Read Dynamic Power:          11.103730 mW
   SPM Write Dynamic Power:         7.385230 mW
   SPM Total Power:                 18.550041 mW

   SPM Energy Per Read Access:      0.142059 nJ
   SPM Energy Per Write Access:     0.255513 nJ

   Cache Leakage Power:             0.000000 mW
   Cache Read Dynamic Power:        0.000000 mW
   Cache Write Dynamic Power:       0.000000 mW
   Cache Total Power:               0.000000 mW

   Accelerator Power:               14.400490 mW
   Accelerator Power (SPM):         32.950531 mW
   Accelerator Power (Cache):       14.400490 mW

   ========= Area Analysis =======================
   FU Area:                         176023.796875 um^2 (0.176024 mm^2)
   Register Area:                   1760.064941 um^2 (0.001760 mm^2)
   SPM Area:                        2165.394891 um^2 (0.002165 mm^2)
   Cache Area:                      0.000000 um^2 (0.000000 mm^2)

   Accelerator Area:                177783.859375 um^2 (0.177784 mm^2)
   Accelerator Area (SPM):          179949.254266 um^2 (0.179949 mm^2)
   Accelerator Area (Cache):        177783.859375 um^2 (0.177784 mm^2)

   ========= SPM Resizing  =======================
   SPM Optimized Leakage Power:     0.005964 mW
   SPM Opt Area:                    422.108128 um^2

3785223125: global: Timer #0 started at tick 3785223125
3785685000: global: Timer #2 started at tick 3785685000
3785766250: global: Timer #2 stopped at tick 3785766250. Duration: 81250
3786608750: global: DAG ID = 0
3786670000: global: Node ID = 0
3786688125: global: Node deadline difference = -13520 us
3786706250: global: Total predicted compute time = 249 us
3786724375: global: Predicted memory time / byte = 0 us/byte
3786742500: global: Predicted memory time = 0 us
3786805000: global: Predicted memory time / byte = 0 us/byte
3786823125: global: Predicted memory time = 0 us
3786841250: global: Predicted memory time / byte = 0 us/byte
3786859375: global: Predicted memory time = 0 us
3786877500: global: Predicted memory time / byte = 0 us/byte
3786895625: global: Predicted memory time = 0 us
3786958125: global: Predicted memory access size = 0 bytes
3786976250: global: Predicted memory access size = 16900 bytes
3786994375: global: Predicted memory access size = 0 bytes
3787012500: global: Predicted memory access size = 0 bytes
3787321250: global: Timer #6 started at tick 3787321250
3788018750: global: Timer #7 started at tick 3788018750
3788696625: system.acctest.grayscale0_dma: SRC:0x0000000027010224, DST:0x0000000025000020, LEN:49152
3789145625: global: Timer #7 stopped at tick 3789145625. Duration: 1126875
3789302500: global: Timer #6 stopped at tick 3789302500. Duration: 1981250
3789444375: global: Timer #6 started at tick 3789444375
3789929375: global: Timer #7 started at tick 3789929375
3790576000: system.acctest.isp0_dma: SRC:0x00000000827a8680, DST:0x0000000027000020, LEN:16900
3790706875: global: Timer #7 stopped at tick 3790706875. Duration: 777500
3790781250: global: Timer #6 stopped at tick 3790781250. Duration: 1336875
3790838125: global: Timer #0 stopped at tick 3790838125. Duration: 5615000
3790852500: global: Number of accelerators running = 2
3793855000: system.acctest.isp0_dma: Transfer completed in 3.279 us
3793930000: global: Timer #0 started at tick 3793930000
3794081875: global: Timer #6 started at tick 3794081875
3794165625: global: Timer #7 started at tick 3794165625
3794683125: global: Timer #7 stopped at tick 3794683125. Duration: 517500
3794701875: global: Timer #6 stopped at tick 3794701875. Duration: 620000
3794790625: global: Timer #0 stopped at tick 3794790625. Duration: 860625
3794805000: global: Number of accelerators running = 2
3798263625: system.acctest.grayscale0_dma: Transfer completed in 9.567 us
3798358125: global: Timer #0 started at tick 3798358125
3798515625: global: Timer #6 started at tick 3798515625
3798693750: global: Timer #7 started at tick 3798693750
3799092500: global: Timer #7 stopped at tick 3799092500. Duration: 398750
3799265000: global: Timer #6 stopped at tick 3799265000. Duration: 749375
3799342500: global: Timer #0 stopped at tick 3799342500. Duration: 984375
3799356875: global: Number of accelerators running = 2
********************************************************************************
system.acctest.grayscale0.compute
   ========= Performance Analysis =============
   Setup Time:                      0.005785seconds
   Simulation Time:                 291.871621seconds
   System Clock:                    1.000000GHz
   Transistor Latency:              1ns
   Runtime:                         10263 cycles
   Runtime:                         10.263000 us
   Stalls:                          1 cycles
   Executed Nodes:                  10261 cycles

********************************************************************************
   ========= Performance Analysis =================
   Setup Time:                      5784979.000000ns
   Simulation Time:                 291871620643.000000ns
   System Clock:                    1.000000GHz
   Transistor Latency:              0ns
   Runtime:                         10263 cycles
   Runtime:                         0.000001 seconds
   Stalls:                          1 cycles
       Load Only:                   0 cycles
       Store Only:                  1 cycles
       Compute Only:                0 cycles
       Compute & Store:             0 cycles
       Load & Store:                0 cycles
       Load & Compute:              0 cycles
       Load & Compute & Store:      0 cycles
   Executed Nodes:                  10261 cycles
       Load Only:                   0 cycles
       Store Only:                  1 cycles
       Compute Only:                88 cycles
       Compute & Store:             344 cycles
       Load & Store:                0 cycles
       Load & Compute:              1981 cycles
       Load & Compute & Store:      7847 cycles

   ========= Runtime FU's ========= (Max | Avg) ===
   Counter FU's:                      24 | 0.199556
   Integer Add/Sub FU's:               0 | 0.000000
   Integer Mul/Div FU's:               8 | 0.199552
   Integer Shifter FU's:               0 | 0.000000
   Integer Bitwise FU's:               1 | 0.000097
   Floating Point Float Add/Sub:      49 | 0.114264
   Floating Point Double Add/Sub:      0 | 0.000000
   Floating Point Float Mul/Div:      42 | 0.114129
   Floating Point Double Mul/Div:      0 | 0.000000
   0 Cycle Compare FU's:               9 | 0.066626
   GEP Instruction FU's:              36 | 0.177452
   Type Conversion FU's:              76 | 0.401969

   ========= Static FU's ==========================
   Counter FU's:                    0
   Integer Add/Sub FU's:            0
   Integer Mul/Div FU's:            0
   Integer Shifter FU's:            0
   Integer Bitwise FU's:            0
   Floating Point Float Add/Sub:    0
   Floating Point Double Add/Sub:   0
   Floating Point Float Mul/Div:    0
   Floating Point Double Mul/Div:   0
   0 Cycle Compare FU's:            0
   GEP Instruction FU's:            0
   Type Conversion FU's:            0
   Other:                           0

   ========= Pipeline Register Usage =============
   Total Number of Registers:       235
   Max Register Usage Per Cycle:    90
   Avg Register Usage Per Cycle:    33.924291
   Avg Register Size (Bytes):       5.841147

   ========= Memory Configuration =================
   Cache Bus Ports:                 0
   Shared Cache Size:               0kB
   Local Bus Ports:                 0
   Private SPM Size:                176kB
   Private Read Ports:              0
   Private Write Ports:             0
   Private Read Bus Width:          64
   Private Write Bus Width:         64
       Memory Reads:                0
       Memory Writes:               0
   ========= Power Analysis ======================
   FU Leakage Power:                1.178269 mW 
   FU Dynamic Power:                0.617392 mW 
   FU Total Power:                  1.795662 mW 

   Registers Leakage Power:          0.014185 mW 
   Registers Dynamic Power:          0.101057 mW 
       Register Reads (Bits):        348165
       Register Writes (Bits):       348168
   Registers Total Power:            0.115242 mW

   SPM Leakage Power:               0.089881 mW
   SPM Read Dynamic Power:          6.997296 mW
   SPM Write Dynamic Power:         2.062375 mW
   SPM Total Power:                 9.149552 mW

   SPM Energy Per Read Access:      0.161778 nJ
   SPM Energy Per Write Access:     0.205661 nJ

   Cache Leakage Power:             0.000000 mW
   Cache Read Dynamic Power:        0.000000 mW
   Cache Write Dynamic Power:       0.000000 mW
   Cache Total Power:               0.000000 mW

   Accelerator Power:               1.910904 mW
   Accelerator Power (SPM):         11.060456 mW
   Accelerator Power (Cache):       1.910904 mW

   ========= Area Analysis =======================
   FU Area:                         143348.187500 um^2 (0.143348 mm^2)
   Register Area:                   1152.968140 um^2 (0.001153 mm^2)
   SPM Area:                        3573.642862 um^2 (0.003574 mm^2)
   Cache Area:                      0.000000 um^2 (0.000000 mm^2)

   Accelerator Area:                144501.156250 um^2 (0.144501 mm^2)
   Accelerator Area (SPM):          148074.799112 um^2 (0.148075 mm^2)
   Accelerator Area (Cache):        144501.156250 um^2 (0.144501 mm^2)

   ========= SPM Resizing  =======================
   SPM Optimized Leakage Power:     0.003633 mW
   SPM Opt Area:                    364.024374 um^2

3809309375: global: Timer #0 started at tick 3809309375
3809811875: global: Timer #2 started at tick 3809811875
3809841250: global: Timer #2 stopped at tick 3809841250. Duration: 29375
3810132500: global: DAG ID = 0
3810145000: global: Node ID = 1
3810158125: global: Node deadline difference = -13533 us
3810170625: global: Total predicted compute time = 196 us
3810183125: global: Predicted memory time / byte = 0 us/byte
3810195625: global: Predicted memory time = 0 us
3810208125: global: Predicted memory time / byte = 0 us/byte
3810220625: global: Predicted memory time = 0 us
3810233125: global: Predicted memory time / byte = 0 us/byte
3810245625: global: Predicted memory time = 0 us
3810258125: global: Predicted memory time / byte = 0 us/byte
3810270625: global: Predicted memory time = 0 us
3810283125: global: Predicted memory access size = 0 bytes
3810295625: global: Predicted memory access size = 49152 bytes
3810308125: global: Predicted memory access size = 0 bytes
3810320625: global: Predicted memory access size = 0 bytes
3810462500: global: Timer #6 started at tick 3810462500
3811105625: global: Timer #7 started at tick 3811105625
3811860875: system.acctest.convolution0_dma: SRC:0x000000002501c020, DST:0x0000000022000020, LEN:65536
3812135000: global: Timer #7 stopped at tick 3812135000. Duration: 1029375
3812210000: global: Timer #6 stopped at tick 3812210000. Duration: 1747500
3812296250: global: Timer #0 stopped at tick 3812296250. Duration: 2986875
3812310625: global: Number of accelerators running = 2
3822121875: system.acctest.convolution0_dma: Transfer completed in 10.261 us
3822261875: global: Timer #0 started at tick 3822261875
3822420625: global: Timer #6 started at tick 3822420625
3822726875: global: Timer #7 started at tick 3822726875
3823373750: system.acctest.convolution0_dma: SRC:0x00000000820b33c0, DST:0x0000000022030020, LEN:100
3823469750: system.acctest.convolution0_dma: Transfer completed in 0.096 us
3823563125: global: Timer #7 stopped at tick 3823563125. Duration: 836250
3823597500: global: Timer #6 stopped at tick 3823597500. Duration: 1176875
3823681875: global: Timer #0 stopped at tick 3823681875. Duration: 1420000
3823696250: global: Number of accelerators running = 2
3823813125: global: Timer #0 started at tick 3823813125
3823970625: global: Timer #6 started at tick 3823970625
3824024375: global: Timer #7 started at tick 3824024375
3825088750: global: Timer #7 stopped at tick 3825088750. Duration: 1064375
3825138125: global: Timer #6 stopped at tick 3825138125. Duration: 1167500
3825215625: global: Timer #0 stopped at tick 3825215625. Duration: 1402500
3825230000: global: Number of accelerators running = 2
********************************************************************************
system.acctest.isp0.compute
   ========= Performance Analysis =============
   Setup Time:                      0.319139seconds
   Simulation Time:                 654.595040seconds
   System Clock:                    1.000000GHz
   Transistor Latency:              1ns
   Runtime:                         34883 cycles
   Runtime:                         34.883000 us
   Stalls:                          1 cycles
   Executed Nodes:                  34881 cycles

********************************************************************************
   ========= Performance Analysis =================
   Setup Time:                      319139226.000000ns
   Simulation Time:                 654595039719.000000ns
   System Clock:                    1.000000GHz
   Transistor Latency:              0ns
   Runtime:                         34883 cycles
   Runtime:                         0.000003 seconds
   Stalls:                          1 cycles
       Load Only:                   0 cycles
       Store Only:                  1 cycles
       Compute Only:                0 cycles
       Compute & Store:             0 cycles
       Load & Store:                0 cycles
       Load & Compute:              0 cycles
       Load & Compute & Store:      0 cycles
   Executed Nodes:                  34881 cycles
       Load Only:                   0 cycles
       Store Only:                  1 cycles
       Compute Only:                3511 cycles
       Compute & Store:             18946 cycles
       Load & Store:                0 cycles
       Load & Compute:              2504 cycles
       Load & Compute & Store:      9919 cycles

   ========= Runtime FU's ========= (Max | Avg) ===
   Counter FU's:                      10 | 0.118072
   Integer Add/Sub FU's:              68 | 0.091698
   Integer Mul/Div FU's:              11 | 0.043887
   Integer Shifter FU's:              45 | 0.052264
   Integer Bitwise FU's:               4 | 0.059442
   Floating Point Float Add/Sub:      50 | 0.123678
   Floating Point Double Add/Sub:      0 | 0.000000
   Floating Point Float Mul/Div:      79 | 0.601083
   Floating Point Double Mul/Div:      0 | 0.000000
   0 Cycle Compare FU's:              93 | 0.606739
   GEP Instruction FU's:              33 | 0.117421
   Type Conversion FU's:             111 | 0.376773

   ========= Static FU's ==========================
   Counter FU's:                    0
   Integer Add/Sub FU's:            0
   Integer Mul/Div FU's:            0
   Integer Shifter FU's:            0
   Integer Bitwise FU's:            0
   Floating Point Float Add/Sub:    0
   Floating Point Double Add/Sub:   0
   Floating Point Float Mul/Div:    0
   Floating Point Double Mul/Div:   0
   0 Cycle Compare FU's:            0
   GEP Instruction FU's:            0
   Type Conversion FU's:            0
   Other:                           0

   ========= Pipeline Register Usage =============
   Total Number of Registers:       1620
   Max Register Usage Per Cycle:    150
   Avg Register Usage Per Cycle:    58.743027
   Avg Register Size (Bytes):       5.073357

   ========= Memory Configuration =================
   Cache Bus Ports:                 0
   Shared Cache Size:               0kB
   Local Bus Ports:                 0
   Private SPM Size:                112kB
   Private Read Ports:              0
   Private Write Ports:             0
   Private Read Bus Width:          64
   Private Write Bus Width:         64
       Memory Reads:                0
       Memory Writes:               0
   ========= Power Analysis ======================
   FU Leakage Power:                1.578062 mW 
   FU Dynamic Power:                9.647320 mW 
   FU Total Power:                  11.225382 mW 

   Registers Leakage Power:          0.021654 mW 
   Registers Dynamic Power:          3.086050 mW 
       Register Reads (Bits):        2049133
       Register Writes (Bits):       2049168
   Registers Total Power:            3.107704 mW

   SPM Leakage Power:               0.061081 mW
   SPM Read Dynamic Power:          15.102444 mW
   SPM Write Dynamic Power:         10.618341 mW
   SPM Total Power:                 25.781867 mW

   SPM Energy Per Read Access:      0.142059 nJ
   SPM Energy Per Write Access:     0.255513 nJ

   Cache Leakage Power:             0.000000 mW
   Cache Read Dynamic Power:        0.000000 mW
   Cache Write Dynamic Power:       0.000000 mW
   Cache Total Power:               0.000000 mW

   Accelerator Power:               14.333086 mW
   Accelerator Power (SPM):         40.114953 mW
   Accelerator Power (Cache):       14.333086 mW

   ========= Area Analysis =======================
   FU Area:                         170581.953125 um^2 (0.170582 mm^2)
   Register Area:                   1760.064941 um^2 (0.001760 mm^2)
   SPM Area:                        2165.394891 um^2 (0.002165 mm^2)
   Cache Area:                      0.000000 um^2 (0.000000 mm^2)

   Accelerator Area:                172342.015625 um^2 (0.172342 mm^2)
   Accelerator Area (SPM):          174507.410516 um^2 (0.174507 mm^2)
   Accelerator Area (Cache):        172342.015625 um^2 (0.172342 mm^2)

   ========= SPM Resizing  =======================
   SPM Optimized Leakage Power:     0.005889 mW
   SPM Opt Area:                    420.258807 um^2

3829538750: global: Timer #0 started at tick 3829538750
3829908125: global: Timer #2 started at tick 3829908125
3829937500: global: Timer #2 stopped at tick 3829937500. Duration: 29375
3830227500: global: DAG ID = 1
3830240000: global: Node ID = 0
3830253125: global: Node deadline difference = -13938 us
3830265625: global: Total predicted compute time = 309 us
3830278125: global: Predicted memory time / byte = 0 us/byte
3830290625: global: Predicted memory time = 0 us
3830303125: global: Predicted memory time / byte = 0 us/byte
3830315625: global: Predicted memory time = 0 us
3830328125: global: Predicted memory time / byte = 0 us/byte
3830340625: global: Predicted memory time = 0 us
3830353125: global: Predicted memory time / byte = 0 us/byte
3830365625: global: Predicted memory time = 0 us
3830378125: global: Predicted memory access size = 0 bytes
3830390625: global: Predicted memory access size = 16900 bytes
3830403125: global: Predicted memory access size = 0 bytes
3830415625: global: Predicted memory access size = 0 bytes
3830513125: global: Timer #6 started at tick 3830513125
3830687500: global: Timer #7 started at tick 3830687500
3831315875: system.acctest.grayscale0_dma: SRC:0x0000000027004224, DST:0x0000000025000020, LEN:49152
3831447500: global: Timer #7 stopped at tick 3831447500. Duration: 760000
3831468750: global: Timer #6 stopped at tick 3831468750. Duration: 955625
3831528750: global: Timer #0 stopped at tick 3831528750. Duration: 1990000
3831541250: global: Number of accelerators running = 2
3839016875: system.acctest.grayscale0_dma: Transfer completed in 7.701 us
3839101250: global: Timer #0 started at tick 3839101250
3839258750: global: Timer #6 started at tick 3839258750
3839296875: global: Timer #7 started at tick 3839296875
3839677500: global: Timer #7 stopped at tick 3839677500. Duration: 380625
3839715000: global: Timer #6 stopped at tick 3839715000. Duration: 456250
3839790000: global: Timer #0 stopped at tick 3839790000. Duration: 688750
3839804375: global: Number of accelerators running = 2
********************************************************************************
system.acctest.grayscale0.compute
   ========= Performance Analysis =============
   Setup Time:                      0.008767seconds
   Simulation Time:                 136.633862seconds
   System Clock:                    1.000000GHz
   Transistor Latency:              1ns
   Runtime:                         10263 cycles
   Runtime:                         10.263000 us
   Stalls:                          1 cycles
   Executed Nodes:                  10261 cycles

********************************************************************************
   ========= Performance Analysis =================
   Setup Time:                      8766773.000000ns
   Simulation Time:                 136633861795.000000ns
   System Clock:                    1.000000GHz
   Transistor Latency:              0ns
   Runtime:                         10263 cycles
   Runtime:                         0.000001 seconds
   Stalls:                          1 cycles
       Load Only:                   0 cycles
       Store Only:                  1 cycles
       Compute Only:                0 cycles
       Compute & Store:             0 cycles
       Load & Store:                0 cycles
       Load & Compute:              0 cycles
       Load & Compute & Store:      0 cycles
   Executed Nodes:                  10261 cycles
       Load Only:                   0 cycles
       Store Only:                  1 cycles
       Compute Only:                88 cycles
       Compute & Store:             344 cycles
       Load & Store:                0 cycles
       Load & Compute:              1981 cycles
       Load & Compute & Store:      7847 cycles

   ========= Runtime FU's ========= (Max | Avg) ===
   Counter FU's:                      24 | 0.199556
   Integer Add/Sub FU's:               0 | 0.000000
   Integer Mul/Div FU's:               8 | 0.199552
   Integer Shifter FU's:               0 | 0.000000
   Integer Bitwise FU's:               1 | 0.000097
   Floating Point Float Add/Sub:      49 | 0.114264
   Floating Point Double Add/Sub:      0 | 0.000000
   Floating Point Float Mul/Div:      42 | 0.114129
   Floating Point Double Mul/Div:      0 | 0.000000
   0 Cycle Compare FU's:               9 | 0.066626
   GEP Instruction FU's:              36 | 0.177452
   Type Conversion FU's:              76 | 0.401969

   ========= Static FU's ==========================
   Counter FU's:                    0
   Integer Add/Sub FU's:            0
   Integer Mul/Div FU's:            0
   Integer Shifter FU's:            0
   Integer Bitwise FU's:            0
   Floating Point Float Add/Sub:    0
   Floating Point Double Add/Sub:   0
   Floating Point Float Mul/Div:    0
   Floating Point Double Mul/Div:   0
   0 Cycle Compare FU's:            0
   GEP Instruction FU's:            0
   Type Conversion FU's:            0
   Other:                           0

   ========= Pipeline Register Usage =============
[...]

   SPM Energy Per Read Access:      0.170493 nJ
   SPM Energy Per Write Access:     0.218190 nJ

   Cache Leakage Power:             0.000000 mW
   Cache Read Dynamic Power:        0.000000 mW
   Cache Write Dynamic Power:       0.000000 mW
   Cache Total Power:               0.000000 mW

   Accelerator Power:               0.120542 mW
   Accelerator Power (SPM):         24.136961 mW
   Accelerator Power (Cache):       0.120542 mW

   ========= Area Analysis =======================
   FU Area:                         5472.068359 um^2 (0.005472 mm^2)
   Register Area:                   381.333923 um^2 (0.000381 mm^2)
   SPM Area:                        2177.365505 um^2 (0.002177 mm^2)
   Cache Area:                      0.000000 um^2 (0.000000 mm^2)

   Accelerator Area:                5853.402344 um^2 (0.005853 mm^2)
   Accelerator Area (SPM):          8030.767849 um^2 (0.008031 mm^2)
   Accelerator Area (Cache):        5853.402344 um^2 (0.005853 mm^2)

   ========= SPM Resizing  =======================
   SPM Optimized Leakage Power:     0.004248 mW
   SPM Opt Area:                    178.524902 um^2

30905771250: global: Timer #0 started at tick 30905771250
30906017500: global: Timer #2 started at tick 30906017500
30906045000: global: Timer #2 stopped at tick 30906045000. Duration: 27500
30906282500: global: DAG ID = 1
30906295000: global: Node ID = 51
30906308125: global: Node deadline difference = -22655 us
30906320625: global: Total predicted compute time = 260 us
30906333125: global: Predicted memory time / byte = 0 us/byte
30906345625: global: Predicted memory time = 0 us
30906358125: global: Predicted memory time / byte = 0 us/byte
30906370625: global: Predicted memory time = 0 us
30906383125: global: Predicted memory time / byte = 0 us/byte
30906395625: global: Predicted memory time = 0 us
30906408125: global: Predicted memory time / byte = 0 us/byte
30906420625: global: Predicted memory time = 0 us
30906433125: global: Predicted memory access size = 0 bytes
30906445625: global: Predicted memory access size = 4 bytes
30906458125: global: Predicted memory access size = 0 bytes
30906470625: global: Predicted memory access size = 0 bytes
30906557500: global: Timer #6 started at tick 30906557500
30906711875: global: Timer #7 started at tick 30906711875
30907341625: system.acctest.elem_matrix0_dma: SRC:0x0000000082a95d40, DST:0x0000000024000020, LEN:65536
30907465625: global: Timer #7 stopped at tick 30907465625. Duration: 753750
30907480625: global: Timer #6 stopped at tick 30907480625. Duration: 923125
30907556250: global: Timer #0 stopped at tick 30907556250. Duration: 1785000
30907570000: global: Number of accelerators running = 2
30919243625: system.acctest.elem_matrix0_dma: Transfer completed in 11.902 us
30919320000: global: Timer #0 started at tick 30919320000
30919463750: global: Timer #6 started at tick 30919463750
30919557500: global: Timer #7 started at tick 30919557500
30920572500: global: Timer #7 stopped at tick 30920572500. Duration: 1015000
30920613125: global: Timer #6 stopped at tick 30920613125. Duration: 1149375
30920696875: global: Timer #0 stopped at tick 30920696875. Duration: 1376875
30920711250: global: Number of accelerators running = 2
********************************************************************************
system.acctest.elem_matrix0.compute
   ========= Performance Analysis =============
   Setup Time:                      6.445935seconds
   Simulation Time:                 135.743119seconds
   System Clock:                    1.000000GHz
   Transistor Latency:              1ns
   Runtime:                         10932 cycles
   Runtime:                         10.932000 us
   Stalls:                          0 cycles
   Executed Nodes:                  10931 cycles

********************************************************************************
   ========= Performance Analysis =================
   Setup Time:                      6445935241.000000ns
   Simulation Time:                 135743119329.000000ns
   System Clock:                    1.000000GHz
   Transistor Latency:              0ns
   Runtime:                         10932 cycles
   Runtime:                         0.000001 seconds
   Stalls:                          0 cycles
       Load Only:                   0 cycles
       Store Only:                  0 cycles
       Compute Only:                0 cycles
       Compute & Store:             0 cycles
       Load & Store:                0 cycles
       Load & Compute:              0 cycles
       Load & Compute & Store:      0 cycles
   Executed Nodes:                  10931 cycles
       Load Only:                   0 cycles
       Store Only:                  5 cycles
       Compute Only:                1 cycles
       Compute & Store:             21 cycles
       Load & Store:                0 cycles
       Load & Compute:              7 cycles
       Load & Compute & Store:      10897 cycles

   ========= Runtime FU's ========= (Max | Avg) ===
   Counter FU's:                      32 | 0.046838
   Integer Add/Sub FU's:               0 | 0.000000
   Integer Mul/Div FU's:               0 | 0.000000
   Integer Shifter FU's:               0 | 0.000000
   Integer Bitwise FU's:               1 | 0.000091
   Floating Point Float Add/Sub:      34 | 0.044252
   Floating Point Double Add/Sub:      0 | 0.000000
   Floating Point Float Mul/Div:       0 | 0.000000
   Floating Point Double Mul/Div:      0 | 0.000000
   0 Cycle Compare FU's:             102 | 0.046974
   GEP Instruction FU's:              96 | 0.046835
   Type Conversion FU's:               7 | 0.006782

   ========= Static FU's ==========================
   Counter FU's:                    0
   Integer Add/Sub FU's:            0
   Integer Mul/Div FU's:            0
   Integer Shifter FU's:            0
   Integer Bitwise FU's:            0
   Floating Point Float Add/Sub:    0
   Floating Point Double Add/Sub:   0
   Floating Point Float Mul/Div:    0
   Floating Point Double Mul/Div:   0
   0 Cycle Compare FU's:            0
   GEP Instruction FU's:            0
   Type Conversion FU's:            0
   Other:                           0

   ========= Pipeline Register Usage =============
   Total Number of Registers:       5641
   Max Register Usage Per Cycle:    138
   Avg Register Usage Per Cycle:    12.130992
   Avg Register Size (Bytes):       5.980606

   ========= Memory Configuration =================
   Cache Bus Ports:                 0
   Shared Cache Size:               0kB
   Local Bus Ports:                 0
   Private SPM Size:                256kB
   Private Read Ports:              0
   Private Write Ports:             0
   Private Read Bus Width:          64
   Private Write Bus Width:         64
       Memory Reads:                0
       Memory Writes:               0
   ========= Power Analysis ======================
   FU Leakage Power:                0.519269 mW 
   FU Dynamic Power:                0.154621 mW 
   FU Total Power:                  0.673890 mW 

   Registers Leakage Power:          0.005281 mW 
   Registers Dynamic Power:          0.015326 mW 
       Register Reads (Bits):        132616
       Register Writes (Bits):       133658
   Registers Total Power:            0.020607 mW

   SPM Leakage Power:               0.104100 mW
   SPM Read Dynamic Power:          13.215476 mW
   SPM Write Dynamic Power:         11.005245 mW
   SPM Total Power:                 24.324821 mW

   SPM Energy Per Read Access:      0.170493 nJ
   SPM Energy Per Write Access:     0.218190 nJ

   Cache Leakage Power:             0.000000 mW
   Cache Read Dynamic Power:        0.000000 mW
   Cache Write Dynamic Power:       0.000000 mW
   Cache Total Power:               0.000000 mW

   Accelerator Power:               0.694497 mW
   Accelerator Power (SPM):         25.019318 mW
   Accelerator Power (Cache):       0.694497 mW

   ========= Area Analysis =======================
   FU Area:                         70212.562500 um^2 (0.070213 mm^2)
   Register Area:                   429.271088 um^2 (0.000429 mm^2)
   SPM Area:                        2177.365505 um^2 (0.002177 mm^2)
   Cache Area:                      0.000000 um^2 (0.000000 mm^2)

   Accelerator Area:                70641.835938 um^2 (0.070642 mm^2)
   Accelerator Area (SPM):          72819.201442 um^2 (0.072819 mm^2)
   Accelerator Area (Cache):        70641.835938 um^2 (0.070642 mm^2)

   ========= SPM Resizing  =======================
   SPM Optimized Leakage Power:     0.004248 mW
   SPM Opt Area:                    178.524902 um^2

30931469375: global: Timer #0 started at tick 30931469375
30931832500: global: Timer #2 started at tick 30931832500
30931860000: global: Timer #2 stopped at tick 30931860000. Duration: 27500
30932297500: global: DAG ID = 1
30932310000: global: Node ID = 52
30932323125: global: Node deadline difference = -22686 us
30932335625: global: Total predicted compute time = 353 us
30932348125: global: Predicted memory time / byte = 0 us/byte
30932360625: global: Predicted memory time = 0 us
30932373125: global: Predicted memory time / byte = 0 us/byte
30932385625: global: Predicted memory time = 0 us
30932398125: global: Predicted memory time / byte = 0 us/byte
30932410625: global: Predicted memory time = 0 us
30932423125: global: Predicted memory time / byte = 0 us/byte
30932435625: global: Predicted memory time = 0 us
30932448125: global: Predicted memory access size = 0 bytes
30932460625: global: Predicted memory access size = 65536 bytes
30932473125: global: Predicted memory access size = 0 bytes
30932485625: global: Predicted memory access size = 0 bytes
30932605000: global: Timer #6 started at tick 30932605000
30932690625: global: Timer #7 started at tick 30932690625
30933315875: system.acctest.harris_non_max0_dma: SRC:0x0000000024030020, DST:0x0000000026000020, LEN:65536
30933452500: global: Timer #7 stopped at tick 30933452500. Duration: 761875
30933476875: global: Timer #6 stopped at tick 30933476875. Duration: 871875
30933536250: global: Timer #0 stopped at tick 30933536250. Duration: 2066875
30933547500: global: Number of accelerators running = 2
30943576875: system.acctest.harris_non_max0_dma: Transfer completed in 10.261 us
30943661875: global: Timer #0 started at tick 30943661875
30943815000: global: Timer #6 started at tick 30943815000
30943856250: global: Timer #7 started at tick 30943856250
30944352500: global: Timer #7 stopped at tick 30944352500. Duration: 496250
30944381875: global: Timer #6 stopped at tick 30944381875. Duration: 566875
30944459375: global: Timer #0 stopped at tick 30944459375. Duration: 797500
30944473750: global: Number of accelerators running = 2
********************************************************************************
system.acctest.harris_non_max0.compute
   ========= Performance Analysis =============
   Setup Time:                      0.007564seconds
   Simulation Time:                 14.282689seconds
   System Clock:                    1.000000GHz
   Transistor Latency:              1ns
   Runtime:                         105010 cycles
   Runtime:                         105.010000 us
   Stalls:                          0 cycles
   Executed Nodes:                  105009 cycles

********************************************************************************
   ========= Performance Analysis =================
   Setup Time:                      7564289.000000ns
   Simulation Time:                 14282689186.000000ns
   System Clock:                    1.000000GHz
   Transistor Latency:              0ns
   Runtime:                         105010 cycles
   Runtime:                         0.000011 seconds
   Stalls:                          0 cycles
       Load Only:                   0 cycles
       Store Only:                  0 cycles
       Compute Only:                0 cycles
       Compute & Store:             0 cycles
       Load & Store:                0 cycles
       Load & Compute:              0 cycles
       Load & Compute & Store:      0 cycles
   Executed Nodes:                  105009 cycles
       Load Only:                   0 cycles
       Store Only:                  0 cycles
       Compute Only:                72241 cycles
       Compute & Store:             16384 cycles
       Load & Store:                0 cycles
       Load & Compute:              16384 cycles
       Load & Compute & Store:      0 cycles

   ========= Runtime FU's ========= (Max | Avg) ===
   Counter FU's:                       2 | 0.167889
   Integer Add/Sub FU's:               2 | 0.261670
   Integer Mul/Div FU's:               0 | 0.000000
   Integer Shifter FU's:               3 | 0.018017
   Integer Bitwise FU's:               1 | 0.472964
   Floating Point Float Add/Sub:       0 | 0.000000
   Floating Point Double Add/Sub:      0 | 0.000000
   Floating Point Float Mul/Div:       0 | 0.000000
   Floating Point Double Mul/Div:      0 | 0.000000
   0 Cycle Compare FU's:              26 | 0.199329
   GEP Instruction FU's:               3 | 0.208571
   Type Conversion FU's:              14 | 0.062158

   ========= Static FU's ==========================
   Counter FU's:                    0
   Integer Add/Sub FU's:            0
   Integer Mul/Div FU's:            0
   Integer Shifter FU's:            0
   Integer Bitwise FU's:            0
   Floating Point Float Add/Sub:    0
   Floating Point Double Add/Sub:   0
   Floating Point Float Mul/Div:    0
   Floating Point Double Mul/Div:   0
   0 Cycle Compare FU's:            0
   GEP Instruction FU's:            0
   Type Conversion FU's:            0
   Other:                           0

   ========= Pipeline Register Usage =============
   Total Number of Registers:       146
   Max Register Usage Per Cycle:    20
   Avg Register Usage Per Cycle:    5.029864
   Avg Register Size (Bytes):       5.546762

   ========= Memory Configuration =================
   Cache Bus Ports:                 0
   Shared Cache Size:               0kB
   Local Bus Ports:                 0
   Private SPM Size:                192kB
   Private Read Ports:              0
   Private Write Ports:             0
   Private Read Bus Width:          64
   Private Write Bus Width:         64
       Memory Reads:                0
       Memory Writes:               0
   ========= Power Analysis ======================
   FU Leakage Power:                0.010458 mW 
   FU Dynamic Power:                2.202634 mW 
   FU Total Power:                  2.213092 mW 

   Registers Leakage Power:          0.002041 mW 
   Registers Dynamic Power:          0.236415 mW 
       Register Reads (Bits):        528188
       Register Writes (Bits):       578368
   Registers Total Power:            0.238456 mW

   SPM Leakage Power:               0.068382 mW
   SPM Read Dynamic Power:          1.279995 mW
   SPM Write Dynamic Power:         1.339804 mW
   SPM Total Power:                 2.688181 mW

   SPM Energy Per Read Access:      0.108255 nJ
   SPM Energy Per Write Access:     0.137710 nJ

   Cache Leakage Power:             0.000000 mW
   Cache Read Dynamic Power:        0.000000 mW
   Cache Write Dynamic Power:       0.000000 mW
   Cache Total Power:               0.000000 mW

   Accelerator Power:               2.451548 mW
   Accelerator Power (SPM):         5.139729 mW
   Accelerator Power (Cache):       2.451548 mW

   ========= Area Analysis =======================
   FU Area:                         799.308228 um^2 (0.000799 mm^2)
   Register Area:                   165.887924 um^2 (0.000166 mm^2)
   SPM Area:                        1011.904012 um^2 (0.001012 mm^2)
   Cache Area:                      0.000000 um^2 (0.000000 mm^2)

   Accelerator Area:                965.196167 um^2 (0.000965 mm^2)
   Accelerator Area (SPM):          1977.100179 um^2 (0.001977 mm^2)
   Accelerator Area (Cache):        965.196167 um^2 (0.000965 mm^2)

   ========= SPM Resizing  =======================
   SPM Optimized Leakage Power:     0.001770 mW
   SPM Opt Area:                    77.453784 um^2

31049327500: global: Timer #0 started at tick 31049327500
31049709375: global: Timer #2 started at tick 31049709375
31049736875: global: Timer #2 stopped at tick 31049736875. Duration: 27500
31049871875: global: Timer #7 started at tick 31049871875
31050500875: system.acctest.harris_non_max0_dma: SRC:0x0000000026020020, DST:0x0000000082ae5f00, LEN:16384
31050628750: global: Timer #7 stopped at tick 31050628750. Duration: 756875
31050868750: global: Timer #6 started at tick 31050868750
31050927500: global: Timer #7 started at tick 31050927500
31051589000: system.acctest.isp0_dma: SRC:0x0000000082aea080, DST:0x0000000027000020, LEN:16900
31051718125: global: Timer #7 stopped at tick 31051718125. Duration: 790625
31051731250: global: Timer #6 stopped at tick 31051731250. Duration: 862500
31051782500: global: Timer #0 stopped at tick 31051782500. Duration: 2455000
31051791875: global: Number of accelerators running = 3
31052187875: system.acctest.harris_non_max0_dma: Transfer completed in 1.687 us
31052264375: global: Timer #0 started at tick 31052264375
31052438125: global: DAG ID = 1
31052450625: global: Node ID = 53
31052480625: global: DAG execution time = 27310 us
31052493750: global: DAG deadline difference = -22691 us
31052516875: global: Node deadline difference = -22691 us
31052529375: global: Total predicted compute time = 774 us
31052541875: global: Predicted memory time / byte = 0 us/byte
31052554375: global: Predicted memory time = 0 us
31052566875: global: Predicted memory time / byte = 0 us/byte
31052579375: global: Predicted memory time = 0 us
31052591875: global: Predicted memory time / byte = 0 us/byte
31052604375: global: Predicted memory time = 0 us
31052616875: global: Predicted memory time / byte = 0 us/byte
31052629375: global: Predicted memory time = 0 us
31052641875: global: Predicted memory access size = 0 bytes
31052654375: global: Predicted memory access size = 65536 bytes
31052666875: global: Predicted memory access size = 0 bytes
31052679375: global: Predicted memory access size = 16384 bytes
31052860000: global: Finished DAG iterations = 3
31052878125: global: Number of DAG deadlines met = 3
31052900000: global: Number of forwards = 10
31052918750: global: Number of colocations = 2
31052936875: global: DRAM data movement = 573956 bytes
31052956250: global: SPAD data movement = 507904 bytes
31052975000: global: Number of node deadlines met = 12
31052997500: global: Number of forwards = 10
31053011250: global: Number of colocations = 2
31053023750: global: DRAM data movement = 622592 bytes
31053037500: global: SPAD data movement = 507904 bytes
31053051250: global: Number of node deadlines met = 12
31053067500: global: Number of forwards = 10
31053081250: global: Number of colocations = 2
31053093750: global: DRAM data movement = 622592 bytes
31053107500: global: SPAD data movement = 507904 bytes
31053121250: global: Number of node deadlines met = 12
31053155000: global: Finished DAG iterations = 3
31053167500: global: Number of DAG deadlines met = 3
31053184375: global: Number of forwards = 13
31053198125: global: Number of colocations = 2
31053210625: global: DRAM data movement = 1425928 bytes
31053224375: global: SPAD data movement = 704512 bytes
31053238125: global: Number of node deadlines met = 18
31053254375: global: Number of forwards = 13
31053268125: global: Number of colocations = 2
31053280625: global: DRAM data movement = 1409028 bytes
31053294375: global: SPAD data movement = 704512 bytes
31053308125: global: Number of node deadlines met = 18
31053331875: global: Number of forwards = 13
31053345625: global: Number of colocations = 2
31053358125: global: DRAM data movement = 1409028 bytes
31053371875: global: SPAD data movement = 704512 bytes
31053385625: global: Number of node deadlines met = 18
31053433125: global: Total predicted compute time = 0 us
Exiting @ tick 31053443750 because m5_exit instruction encountered
