
---------- Begin Simulation Statistics ----------
final_tick                                18953795000                       # Number of ticks from beginning of simulation (restored from checkpoints and never reset)
host_inst_rate                                    537                       # Simulator instruction rate (inst/s)
host_mem_usage                                9350676                       # Number of bytes of host memory used
host_op_rate                                      550                       # Simulator op (including micro ops) rate (op/s)
host_seconds                                 26081.25                       # Real time elapsed on the host
host_tick_rate                                 466908                       # Simulator tick rate (ticks/s)
sim_freq                                 1000000000000                       # Frequency of simulated ticks
sim_insts                                    13998737                       # Number of instructions simulated
sim_ops                                      14345556                       # Number of ops (including micro ops) simulated
sim_seconds                                  0.012178                       # Number of seconds simulated
sim_ticks                                 12177538750                       # Number of ticks simulated
system.acctest.coherency_bus.snoop_filter.hit_multi_requests            0                       # Number of requests hitting in the snoop filter with multiple (>1) holders of the requested data.
system.acctest.coherency_bus.snoop_filter.hit_multi_snoops            0                       # Number of snoops hitting in the snoop filter with multiple (>1) holders of the requested data.
system.acctest.coherency_bus.snoop_filter.hit_single_requests            0                       # Number of requests hitting in the snoop filter with a single holder of the requested data.
system.acctest.coherency_bus.snoop_filter.hit_single_snoops            0                       # Number of snoops hitting in the snoop filter with a single holder of the requested data.
system.acctest.coherency_bus.snoop_filter.tot_requests            0                       # Total number of requests made to the snoop filter.
system.acctest.coherency_bus.snoop_filter.tot_snoops            0                       # Total number of snoops made to the snoop filter.
system.cf0.dma_read_bytes                           0                       # Number of bytes transfered via DMA reads (not PRD).
system.cf0.dma_read_full_pages                      0                       # Number of full page size DMA reads (not PRD).
system.cf0.dma_read_txs                             0                       # Number of DMA read transactions (not PRD).
system.cf0.dma_write_bytes                          0                       # Number of bytes transfered via DMA writes.
system.cf0.dma_write_full_pages                     0                       # Number of full page size DMA writes.
system.cf0.dma_write_txs                            0                       # Number of DMA write transactions.
system.cpu.branchPred.BTBCorrect                    0                       # Number of correct BTB predictions (this stat may not work properly.
system.cpu.branchPred.BTBHitPct             96.870702                       # BTB Hit Percentage
system.cpu.branchPred.BTBHits                  409889                       # Number of BTB hits
system.cpu.branchPred.BTBLookups               423130                       # Number of BTB lookups
system.cpu.branchPred.RASInCorrect                723                       # Number of incorrect RAS predictions.
system.cpu.branchPred.condIncorrect              6984                       # Number of conditional branches incorrect
system.cpu.branchPred.condPredicted            430136                       # Number of conditional branches predicted
system.cpu.branchPred.indirectHits               5359                       # Number of indirect target hits.
system.cpu.branchPred.indirectLookups            6798                       # Number of indirect predictor lookups.
system.cpu.branchPred.indirectMisses             1439                       # Number of indirect misses.
system.cpu.branchPred.lookups                  487012                       # Number of BP lookups
system.cpu.branchPred.usedRAS                   20832                       # Number of times the RAS was used to get a target.
system.cpu.branchPredindirectMispredicted          811                       # Number of mispredicted indirect branches.
system.cpu.committedInsts                     2893346                       # Number of instructions committed
system.cpu.committedOps                       2942676                       # Number of ops (including micro ops) committed
system.cpu.cpi                               3.047508                       # CPI: cycles per instruction
system.cpu.discardedOps                         17817                       # Number of ops (including micro ops) which were discarded before commit
system.cpu.dtb.accesses                             0                       # DTB accesses
system.cpu.dtb.align_faults                         0                       # Number of TLB faults due to alignment restrictions
system.cpu.dtb.domain_faults                        0                       # Number of TLB faults due to domain restrictions
system.cpu.dtb.flush_entries                        0                       # Number of entries that have been flushed from TLB
system.cpu.dtb.flush_tlb                            0                       # Number of times complete TLB was flushed
system.cpu.dtb.flush_tlb_asid                       0                       # Number of times TLB was flushed by ASID
system.cpu.dtb.flush_tlb_mva                        0                       # Number of times TLB was flushed by MVA
system.cpu.dtb.flush_tlb_mva_asid                   0                       # Number of times TLB was flushed by MVA & ASID
system.cpu.dtb.hits                                 0                       # DTB hits
system.cpu.dtb.inst_accesses                        0                       # ITB inst accesses
system.cpu.dtb.inst_hits                            0                       # ITB inst hits
system.cpu.dtb.inst_misses                          0                       # ITB inst misses
system.cpu.dtb.misses                               0                       # DTB misses
system.cpu.dtb.perms_faults                         0                       # Number of TLB faults due to permissions restrictions
system.cpu.dtb.prefetch_faults                      0                       # Number of TLB faults due to prefetch
system.cpu.dtb.read_accesses                        0                       # DTB read accesses
system.cpu.dtb.read_hits                            0                       # DTB read hits
system.cpu.dtb.read_misses                          0                       # DTB read misses
system.cpu.dtb.stage2_mmu.stage2_tlb.accesses            0                       # DTB accesses
system.cpu.dtb.stage2_mmu.stage2_tlb.align_faults            0                       # Number of TLB faults due to alignment restrictions
system.cpu.dtb.stage2_mmu.stage2_tlb.domain_faults            0                       # Number of TLB faults due to domain restrictions
system.cpu.dtb.stage2_mmu.stage2_tlb.flush_entries            0                       # Number of entries that have been flushed from TLB
system.cpu.dtb.stage2_mmu.stage2_tlb.flush_tlb            0                       # Number of times complete TLB was flushed
system.cpu.dtb.stage2_mmu.stage2_tlb.flush_tlb_asid            0                       # Number of times TLB was flushed by ASID
system.cpu.dtb.stage2_mmu.stage2_tlb.flush_tlb_mva            0                       # Number of times TLB was flushed by MVA
system.cpu.dtb.stage2_mmu.stage2_tlb.flush_tlb_mva_asid            0                       # Number of times TLB was flushed by MVA & ASID
system.cpu.dtb.stage2_mmu.stage2_tlb.hits            0                       # DTB hits
system.cpu.dtb.stage2_mmu.stage2_tlb.inst_accesses            0                       # ITB inst accesses
system.cpu.dtb.stage2_mmu.stage2_tlb.inst_hits            0                       # ITB inst hits
system.cpu.dtb.stage2_mmu.stage2_tlb.inst_misses            0                       # ITB inst misses
system.cpu.dtb.stage2_mmu.stage2_tlb.misses            0                       # DTB misses
system.cpu.dtb.stage2_mmu.stage2_tlb.perms_faults            0                       # Number of TLB faults due to permissions restrictions
system.cpu.dtb.stage2_mmu.stage2_tlb.prefetch_faults            0                       # Number of TLB faults due to prefetch
system.cpu.dtb.stage2_mmu.stage2_tlb.read_accesses            0                       # DTB read accesses
system.cpu.dtb.stage2_mmu.stage2_tlb.read_hits            0                       # DTB read hits
system.cpu.dtb.stage2_mmu.stage2_tlb.read_misses            0                       # DTB read misses
system.cpu.dtb.stage2_mmu.stage2_tlb.walker.walkRequestOrigin_Requested::Data            0                       # Table walker requests started/completed, data/inst
system.cpu.dtb.stage2_mmu.stage2_tlb.walker.walkRequestOrigin_Requested::Inst            0                       # Table walker requests started/completed, data/inst
system.cpu.dtb.stage2_mmu.stage2_tlb.walker.walkRequestOrigin_Requested::total            0                       # Table walker requests started/completed, data/inst
system.cpu.dtb.stage2_mmu.stage2_tlb.walker.walkRequestOrigin_Completed::Data            0                       # Table walker requests started/completed, data/inst
system.cpu.dtb.stage2_mmu.stage2_tlb.walker.walkRequestOrigin_Completed::Inst            0                       # Table walker requests started/completed, data/inst
system.cpu.dtb.stage2_mmu.stage2_tlb.walker.walkRequestOrigin_Completed::total            0                       # Table walker requests started/completed, data/inst
system.cpu.dtb.stage2_mmu.stage2_tlb.walker.walkRequestOrigin::total            0                       # Table walker requests started/completed, data/inst
system.cpu.dtb.stage2_mmu.stage2_tlb.walker.walks            0                       # Table walker walks requested
system.cpu.dtb.stage2_mmu.stage2_tlb.write_accesses            0                       # DTB write accesses
system.cpu.dtb.stage2_mmu.stage2_tlb.write_hits            0                       # DTB write hits
system.cpu.dtb.stage2_mmu.stage2_tlb.write_misses            0                       # DTB write misses
system.cpu.dtb.walker.walkRequestOrigin_Requested::Data            0                       # Table walker requests started/completed, data/inst
system.cpu.dtb.walker.walkRequestOrigin_Requested::Inst            0                       # Table walker requests started/completed, data/inst
system.cpu.dtb.walker.walkRequestOrigin_Requested::total            0                       # Table walker requests started/completed, data/inst
system.cpu.dtb.walker.walkRequestOrigin_Completed::Data            0                       # Table walker requests started/completed, data/inst
system.cpu.dtb.walker.walkRequestOrigin_Completed::Inst            0                       # Table walker requests started/completed, data/inst
system.cpu.dtb.walker.walkRequestOrigin_Completed::total            0                       # Table walker requests started/completed, data/inst
system.cpu.dtb.walker.walkRequestOrigin::total            0                       # Table walker requests started/completed, data/inst
system.cpu.dtb.walker.walks                         0                       # Table walker walks requested
system.cpu.dtb.write_accesses                       0                       # DTB write accesses
system.cpu.dtb.write_hits                           0                       # DTB write hits
system.cpu.dtb.write_misses                         0                       # DTB write misses
system.cpu.fetch2.amo_instructions                  0                       # Number of memory atomic instructions successfully decoded
system.cpu.fetch2.fp_instructions                   0                       # Number of floating point instructions successfully decoded
system.cpu.fetch2.int_instructions            1606763                       # Number of integer instructions successfully decoded
system.cpu.fetch2.load_instructions            152621                       # Number of memory load instructions successfully decoded
system.cpu.fetch2.store_instructions           763558                       # Number of memory store instructions successfully decoded
system.cpu.fetch2.vec_instructions                  0                       # Number of SIMD instructions successfully decoded
system.cpu.idleCycles                         2717943                       # Total number of cycles that the object has spent stopped
system.cpu.ipc                               0.328137                       # IPC: instructions per cycle
system.cpu.itb.accesses                             0                       # DTB accesses
system.cpu.itb.align_faults                         0                       # Number of TLB faults due to alignment restrictions
system.cpu.itb.domain_faults                        0                       # Number of TLB faults due to domain restrictions
system.cpu.itb.flush_entries                        0                       # Number of entries that have been flushed from TLB
system.cpu.itb.flush_tlb                            0                       # Number of times complete TLB was flushed
system.cpu.itb.flush_tlb_asid                       0                       # Number of times TLB was flushed by ASID
system.cpu.itb.flush_tlb_mva                        0                       # Number of times TLB was flushed by MVA
system.cpu.itb.flush_tlb_mva_asid                   0                       # Number of times TLB was flushed by MVA & ASID
system.cpu.itb.hits                                 0                       # DTB hits
system.cpu.itb.inst_accesses                        0                       # ITB inst accesses
system.cpu.itb.inst_hits                            0                       # ITB inst hits
system.cpu.itb.inst_misses                          0                       # ITB inst misses
system.cpu.itb.misses                               0                       # DTB misses
system.cpu.itb.perms_faults                         0                       # Number of TLB faults due to permissions restrictions
system.cpu.itb.prefetch_faults                      0                       # Number of TLB faults due to prefetch
system.cpu.itb.read_accesses                        0                       # DTB read accesses
system.cpu.itb.read_hits                            0                       # DTB read hits
system.cpu.itb.read_misses                          0                       # DTB read misses
system.cpu.itb.stage2_mmu.stage2_tlb.accesses            0                       # DTB accesses
system.cpu.itb.stage2_mmu.stage2_tlb.align_faults            0                       # Number of TLB faults due to alignment restrictions
system.cpu.itb.stage2_mmu.stage2_tlb.domain_faults            0                       # Number of TLB faults due to domain restrictions
system.cpu.itb.stage2_mmu.stage2_tlb.flush_entries            0                       # Number of entries that have been flushed from TLB
system.cpu.itb.stage2_mmu.stage2_tlb.flush_tlb            0                       # Number of times complete TLB was flushed
system.cpu.itb.stage2_mmu.stage2_tlb.flush_tlb_asid            0                       # Number of times TLB was flushed by ASID
system.cpu.itb.stage2_mmu.stage2_tlb.flush_tlb_mva            0                       # Number of times TLB was flushed by MVA
system.cpu.itb.stage2_mmu.stage2_tlb.flush_tlb_mva_asid            0                       # Number of times TLB was flushed by MVA & ASID
system.cpu.itb.stage2_mmu.stage2_tlb.hits            0                       # DTB hits
system.cpu.itb.stage2_mmu.stage2_tlb.inst_accesses            0                       # ITB inst accesses
system.cpu.itb.stage2_mmu.stage2_tlb.inst_hits            0                       # ITB inst hits
system.cpu.itb.stage2_mmu.stage2_tlb.inst_misses            0                       # ITB inst misses
system.cpu.itb.stage2_mmu.stage2_tlb.misses            0                       # DTB misses
system.cpu.itb.stage2_mmu.stage2_tlb.perms_faults            0                       # Number of TLB faults due to permissions restrictions
system.cpu.itb.stage2_mmu.stage2_tlb.prefetch_faults            0                       # Number of TLB faults due to prefetch
system.cpu.itb.stage2_mmu.stage2_tlb.read_accesses            0                       # DTB read accesses
system.cpu.itb.stage2_mmu.stage2_tlb.read_hits            0                       # DTB read hits
system.cpu.itb.stage2_mmu.stage2_tlb.read_misses            0                       # DTB read misses
system.cpu.itb.stage2_mmu.stage2_tlb.walker.walkRequestOrigin_Requested::Data            0                       # Table walker requests started/completed, data/inst
system.cpu.itb.stage2_mmu.stage2_tlb.walker.walkRequestOrigin_Requested::Inst            0                       # Table walker requests started/completed, data/inst
system.cpu.itb.stage2_mmu.stage2_tlb.walker.walkRequestOrigin_Requested::total            0                       # Table walker requests started/completed, data/inst
system.cpu.itb.stage2_mmu.stage2_tlb.walker.walkRequestOrigin_Completed::Data            0                       # Table walker requests started/completed, data/inst
system.cpu.itb.stage2_mmu.stage2_tlb.walker.walkRequestOrigin_Completed::Inst            0                       # Table walker requests started/completed, data/inst
system.cpu.itb.stage2_mmu.stage2_tlb.walker.walkRequestOrigin_Completed::total            0                       # Table walker requests started/completed, data/inst
system.cpu.itb.stage2_mmu.stage2_tlb.walker.walkRequestOrigin::total            0                       # Table walker requests started/completed, data/inst
system.cpu.itb.stage2_mmu.stage2_tlb.walker.walks            0                       # Table walker walks requested
system.cpu.itb.stage2_mmu.stage2_tlb.write_accesses            0                       # DTB write accesses
system.cpu.itb.stage2_mmu.stage2_tlb.write_hits            0                       # DTB write hits
system.cpu.itb.stage2_mmu.stage2_tlb.write_misses            0                       # DTB write misses
system.cpu.itb.walker.walkRequestOrigin_Requested::Data            0                       # Table walker requests started/completed, data/inst
system.cpu.itb.walker.walkRequestOrigin_Requested::Inst            0                       # Table walker requests started/completed, data/inst
system.cpu.itb.walker.walkRequestOrigin_Requested::total            0                       # Table walker requests started/completed, data/inst
system.cpu.itb.walker.walkRequestOrigin_Completed::Data            0                       # Table walker requests started/completed, data/inst
system.cpu.itb.walker.walkRequestOrigin_Completed::Inst            0                       # Table walker requests started/completed, data/inst
system.cpu.itb.walker.walkRequestOrigin_Completed::total            0                       # Table walker requests started/completed, data/inst
system.cpu.itb.walker.walkRequestOrigin::total            0                       # Table walker requests started/completed, data/inst
system.cpu.itb.walker.walks                         0                       # Table walker walks requested
system.cpu.itb.write_accesses                       0                       # DTB write accesses
system.cpu.itb.write_hits                           0                       # DTB write hits
system.cpu.itb.write_misses                         0                       # DTB write misses
system.cpu.kern.inst.arm                            0                       # number of arm instructions executed
system.cpu.kern.inst.quiesce                      605                       # number of quiesce instructions executed
system.cpu.numCycles                          8817494                       # number of cpu cycles simulated
system.cpu.numFetchSuspends                       605                       # Number of times Execute suspended instruction fetching
system.cpu.numWorkItemsCompleted                    0                       # number of work items this cpu completed
system.cpu.numWorkItemsStarted                      0                       # number of work items this cpu started
system.cpu.op_class_0::No_OpClass                   0      0.00%      0.00% # Class of committed instruction
system.cpu.op_class_0::IntAlu                 2004795     68.13%     68.13% # Class of committed instruction
system.cpu.op_class_0::IntMult                   3313      0.11%     68.24% # Class of committed instruction
system.cpu.op_class_0::IntDiv                       0      0.00%     68.24% # Class of committed instruction
system.cpu.op_class_0::FloatAdd                     0      0.00%     68.24% # Class of committed instruction
system.cpu.op_class_0::FloatCmp                     0      0.00%     68.24% # Class of committed instruction
system.cpu.op_class_0::FloatCvt                     0      0.00%     68.24% # Class of committed instruction
system.cpu.op_class_0::FloatMult                    0      0.00%     68.24% # Class of committed instruction
system.cpu.op_class_0::FloatMultAcc                 0      0.00%     68.24% # Class of committed instruction
system.cpu.op_class_0::FloatDiv                     0      0.00%     68.24% # Class of committed instruction
system.cpu.op_class_0::FloatMisc                    0      0.00%     68.24% # Class of committed instruction
system.cpu.op_class_0::FloatSqrt                    0      0.00%     68.24% # Class of committed instruction
system.cpu.op_class_0::SimdAdd                      0      0.00%     68.24% # Class of committed instruction
system.cpu.op_class_0::SimdAddAcc                   0      0.00%     68.24% # Class of committed instruction
system.cpu.op_class_0::SimdAlu                      0      0.00%     68.24% # Class of committed instruction
system.cpu.op_class_0::SimdCmp                      0      0.00%     68.24% # Class of committed instruction
system.cpu.op_class_0::SimdCvt                      0      0.00%     68.24% # Class of committed instruction
system.cpu.op_class_0::SimdMisc                     0      0.00%     68.24% # Class of committed instruction
system.cpu.op_class_0::SimdMult                     0      0.00%     68.24% # Class of committed instruction
system.cpu.op_class_0::SimdMultAcc                  0      0.00%     68.24% # Class of committed instruction
system.cpu.op_class_0::SimdShift                    0      0.00%     68.24% # Class of committed instruction
system.cpu.op_class_0::SimdShiftAcc                 0      0.00%     68.24% # Class of committed instruction
system.cpu.op_class_0::SimdDiv                      0      0.00%     68.24% # Class of committed instruction
system.cpu.op_class_0::SimdSqrt                     0      0.00%     68.24% # Class of committed instruction
system.cpu.op_class_0::SimdFloatAdd                 0      0.00%     68.24% # Class of committed instruction
system.cpu.op_class_0::SimdFloatAlu                 0      0.00%     68.24% # Class of committed instruction
system.cpu.op_class_0::SimdFloatCmp                 0      0.00%     68.24% # Class of committed instruction
system.cpu.op_class_0::SimdFloatCvt                 0      0.00%     68.24% # Class of committed instruction
system.cpu.op_class_0::SimdFloatDiv                 0      0.00%     68.24% # Class of committed instruction
system.cpu.op_class_0::SimdFloatMisc                0      0.00%     68.24% # Class of committed instruction
system.cpu.op_class_0::SimdFloatMult                0      0.00%     68.24% # Class of committed instruction
system.cpu.op_class_0::SimdFloatMultAcc             0      0.00%     68.24% # Class of committed instruction
system.cpu.op_class_0::SimdFloatSqrt                0      0.00%     68.24% # Class of committed instruction
system.cpu.op_class_0::SimdReduceAdd                0      0.00%     68.24% # Class of committed instruction
system.cpu.op_class_0::SimdReduceAlu                0      0.00%     68.24% # Class of committed instruction
system.cpu.op_class_0::SimdReduceCmp                0      0.00%     68.24% # Class of committed instruction
system.cpu.op_class_0::SimdFloatReduceAdd            0      0.00%     68.24% # Class of committed instruction
system.cpu.op_class_0::SimdFloatReduceCmp            0      0.00%     68.24% # Class of committed instruction
system.cpu.op_class_0::SimdAes                      0      0.00%     68.24% # Class of committed instruction
system.cpu.op_class_0::SimdAesMix                   0      0.00%     68.24% # Class of committed instruction
system.cpu.op_class_0::SimdSha1Hash                 0      0.00%     68.24% # Class of committed instruction
system.cpu.op_class_0::SimdSha1Hash2                0      0.00%     68.24% # Class of committed instruction
system.cpu.op_class_0::SimdSha256Hash               0      0.00%     68.24% # Class of committed instruction
system.cpu.op_class_0::SimdSha256Hash2              0      0.00%     68.24% # Class of committed instruction
system.cpu.op_class_0::SimdShaSigma2                0      0.00%     68.24% # Class of committed instruction
system.cpu.op_class_0::SimdShaSigma3                0      0.00%     68.24% # Class of committed instruction
system.cpu.op_class_0::SimdPredAlu                  0      0.00%     68.24% # Class of committed instruction
system.cpu.op_class_0::MemRead                 152558      5.18%     73.43% # Class of committed instruction
system.cpu.op_class_0::MemWrite                782010     26.57%    100.00% # Class of committed instruction
system.cpu.op_class_0::FloatMemRead                 0      0.00%    100.00% # Class of committed instruction
system.cpu.op_class_0::FloatMemWrite                0      0.00%    100.00% # Class of committed instruction
system.cpu.op_class_0::IprAccess                    0      0.00%    100.00% # Class of committed instruction
system.cpu.op_class_0::InstPrefetch                 0      0.00%    100.00% # Class of committed instruction
system.cpu.op_class_0::total                  2942676                       # Class of committed instruction
system.cpu.quiesceCycles                     10666568                       # Total number of cycles that CPU has spent quiesced or waiting for an interrupt
system.cpu.tickCycles                         6099551                       # Number of cycles that the object actually ticked
system.membus.snoop_filter.hit_multi_requests            9                       # Number of requests hitting in the snoop filter with multiple (>1) holders of the requested data.
system.membus.snoop_filter.hit_multi_snoops            0                       # Number of snoops hitting in the snoop filter with multiple (>1) holders of the requested data.
system.membus.snoop_filter.hit_single_requests         1070                       # Number of requests hitting in the snoop filter with a single holder of the requested data.
system.membus.snoop_filter.hit_single_snoops            0                       # Number of snoops hitting in the snoop filter with a single holder of the requested data.
system.membus.snoop_filter.tot_requests        687404                       # Total number of requests made to the snoop filter.
system.membus.snoop_filter.tot_snoops               0                       # Total number of snoops made to the snoop filter.
system.bridge.pwrStateResidencyTicks::UNDEFINED  18953795000                       # Cumulative time (in ticks) in various power states
system.voltage_domain.voltage                       1                       # Voltage in Volts
system.iocache.pwrStateResidencyTicks::UNDEFINED  18953795000                       # Cumulative time (in ticks) in various power states
system.iocache.blocked_cycles::no_mshrs             0                       # number of cycles access was blocked
system.iocache.blocked_cycles::no_targets            0                       # number of cycles access was blocked
system.iocache.blocked::no_mshrs                    0                       # number of cycles access was blocked
system.iocache.blocked::no_targets                  0                       # number of cycles access was blocked
system.iocache.avg_blocked_cycles::no_mshrs          nan                       # average number of cycles each access was blocked
system.iocache.avg_blocked_cycles::no_targets          nan                       # average number of cycles each access was blocked
system.iocache.replacements                         0                       # number of replacements
system.iocache.tags.pwrStateResidencyTicks::UNDEFINED  18953795000                       # Cumulative time (in ticks) in various power states
system.iocache.tags.tagsinuse                       0                       # Cycle average of tags in use
system.iocache.tags.total_refs                      0                       # Total number of references to valid blocks.
system.iocache.tags.sampled_refs                    0                       # Sample count of references to valid blocks.
system.iocache.tags.avg_refs                      nan                       # Average number of references to valid blocks.
system.iocache.tags.warmup_cycle                    0                       # Cycle when the warmup percentage was hit.
system.iocache.tags.tag_accesses                    0                       # Number of tag accesses
system.iocache.tags.data_accesses                   0                       # Number of data accesses
system.membus.pwrStateResidencyTicks::UNDEFINED  18953795000                       # Cumulative time (in ticks) in various power states
system.membus.trans_dist::ReadReq              255864                       # Transaction distribution
system.membus.trans_dist::ReadResp             256875                       # Transaction distribution
system.membus.trans_dist::WriteReq              93061                       # Transaction distribution
system.membus.trans_dist::WriteResp             93061                       # Transaction distribution
system.membus.trans_dist::WritebackDirty          630                       # Transaction distribution
system.membus.trans_dist::WriteClean                1                       # Transaction distribution
system.membus.trans_dist::CleanEvict              422                       # Transaction distribution
system.membus.trans_dist::ReadExReq               252                       # Transaction distribution
system.membus.trans_dist::ReadExResp              252                       # Transaction distribution
system.membus.trans_dist::ReadCleanReq            315                       # Transaction distribution
system.membus.trans_dist::ReadSharedReq           696                       # Transaction distribution
system.membus.trans_dist::CleanInvalidReq       342541                       # Transaction distribution
system.membus.trans_dist::InvalidateReq        342541                       # Transaction distribution
system.membus.pkt_count_system.cpu.icache.mem_side::system.realview.bootmem.port          734                       # Packet count per connected master and slave (bytes)
system.membus.pkt_count_system.cpu.icache.mem_side::total          734                       # Packet count per connected master and slave (bytes)
system.membus.pkt_count_system.cpu.dcache.mem_side::system.realview.bootmem.port           57                       # Packet count per connected master and slave (bytes)
system.membus.pkt_count_system.cpu.dcache.mem_side::system.realview.gic.pio         2476                       # Packet count per connected master and slave (bytes)
system.membus.pkt_count_system.cpu.dcache.mem_side::system.mem_ctrls.port       687870                       # Packet count per connected master and slave (bytes)
system.membus.pkt_count_system.cpu.dcache.mem_side::system.acctest.mem2cls.slave        10292                       # Packet count per connected master and slave (bytes)
system.membus.pkt_count_system.cpu.dcache.mem_side::total       700695                       # Packet count per connected master and slave (bytes)
system.membus.pkt_count_system.acctest.coherency_bus.master[0]::system.mem_ctrls.port       685082                       # Packet count per connected master and slave (bytes)
system.membus.pkt_count_system.acctest.coherency_bus.master[0]::total       685082                       # Packet count per connected master and slave (bytes)
system.membus.pkt_count::total                1386511                       # Packet count per connected master and slave (bytes)
system.membus.pkt_size_system.cpu.icache.mem_side::system.realview.bootmem.port        20160                       # Cumulative packet size per connected master and slave (bytes)
system.membus.pkt_size_system.cpu.icache.mem_side::total        20160                       # Cumulative packet size per connected master and slave (bytes)
system.membus.pkt_size_system.cpu.dcache.mem_side::system.realview.bootmem.port         1536                       # Cumulative packet size per connected master and slave (bytes)
system.membus.pkt_size_system.cpu.dcache.mem_side::system.realview.gic.pio         4952                       # Cumulative packet size per connected master and slave (bytes)
system.membus.pkt_size_system.cpu.dcache.mem_side::system.mem_ctrls.port        99520                       # Cumulative packet size per connected master and slave (bytes)
system.membus.pkt_size_system.cpu.dcache.mem_side::system.acctest.mem2cls.slave        13612                       # Cumulative packet size per connected master and slave (bytes)
system.membus.pkt_size_system.cpu.dcache.mem_side::total       119620                       # Cumulative packet size per connected master and slave (bytes)
system.membus.pkt_size_system.acctest.coherency_bus.master[0]::system.mem_ctrls.port     21922480                       # Cumulative packet size per connected master and slave (bytes)
system.membus.pkt_size_system.acctest.coherency_bus.master[0]::total     21922480                       # Cumulative packet size per connected master and slave (bytes)
system.membus.pkt_size::total                22062260                       # Cumulative packet size per connected master and slave (bytes)
system.membus.snoops                                0                       # Total snoops (count)
system.membus.snoopTraffic                          0                       # Total snoop traffic (bytes)
system.membus.snoop_fanout::samples           1035429                       # Request fanout histogram
system.membus.snoop_fanout::mean             0.000025                       # Request fanout histogram
system.membus.snoop_fanout::stdev            0.005011                       # Request fanout histogram
system.membus.snoop_fanout::underflows              0      0.00%      0.00% # Request fanout histogram
system.membus.snoop_fanout::0                 1035403    100.00%    100.00% # Request fanout histogram
system.membus.snoop_fanout::1                      26      0.00%    100.00% # Request fanout histogram
system.membus.snoop_fanout::2                       0      0.00%    100.00% # Request fanout histogram
system.membus.snoop_fanout::3                       0      0.00%    100.00% # Request fanout histogram
system.membus.snoop_fanout::4                       0      0.00%    100.00% # Request fanout histogram
system.membus.snoop_fanout::overflows               0      0.00%    100.00% # Request fanout histogram
system.membus.snoop_fanout::min_value               0                       # Request fanout histogram
system.membus.snoop_fanout::max_value               1                       # Request fanout histogram
system.membus.snoop_fanout::total             1035429                       # Request fanout histogram
system.membus.reqLayer6.occupancy          1643779382                       # Layer occupancy (ticks)
system.membus.reqLayer6.utilization              13.5                       # Layer utilization (%)
system.membus.reqLayer7.occupancy            13012124                       # Layer occupancy (ticks)
system.membus.reqLayer7.utilization               0.1                       # Layer utilization (%)
system.membus.reqLayer1.occupancy              688765                       # Layer occupancy (ticks)
system.membus.reqLayer1.utilization               0.0                       # Layer utilization (%)
system.membus.reqLayer2.occupancy             2478125                       # Layer occupancy (ticks)
system.membus.reqLayer2.utilization               0.0                       # Layer utilization (%)
system.membus.badaddr_responder.pwrStateResidencyTicks::UNDEFINED  18953795000                       # Cumulative time (in ticks) in various power states
system.membus.respLayer4.occupancy           12417495                       # Layer occupancy (ticks)
system.membus.respLayer4.utilization              0.1                       # Layer utilization (%)
system.membus.respLayer7.occupancy         1490735625                       # Layer occupancy (ticks)
system.membus.respLayer7.utilization             12.2                       # Layer utilization (%)
system.membus.respLayer3.occupancy            1583250                       # Layer occupancy (ticks)
system.membus.respLayer3.utilization              0.0                       # Layer utilization (%)
system.acctest.harris_non_max0_spm.pwrStateResidencyTicks::UNDEFINED  18953795000                       # Cumulative time (in ticks) in various power states
system.acctest.elem_matrix2_spm.pwrStateResidencyTicks::UNDEFINED  18953795000                       # Cumulative time (in ticks) in various power states
system.acctest.elem_matrix3_spm.pwrStateResidencyTicks::UNDEFINED  18953795000                       # Cumulative time (in ticks) in various power states
system.acctest.local_bus.pwrStateResidencyTicks::UNDEFINED  18953795000                       # Cumulative time (in ticks) in various power states
system.acctest.local_bus.trans_dist::ReadReq       182272                       # Transaction distribution
system.acctest.local_bus.trans_dist::ReadResp       182272                       # Transaction distribution
system.acctest.local_bus.trans_dist::WriteReq       523315                       # Transaction distribution
system.acctest.local_bus.trans_dist::WriteResp       523315                       # Transaction distribution
system.acctest.local_bus.pkt_count_system.acctest.mem2cls.master::system.acctest.canny_non_max0.pio           12                       # Packet count per connected master and slave (bytes)
system.acctest.local_bus.pkt_count_system.acctest.mem2cls.master::system.acctest.canny_non_max0_dma.pio           28                       # Packet count per connected master and slave (bytes)
system.acctest.local_bus.pkt_count_system.acctest.mem2cls.master::system.acctest.convolution0.pio           60                       # Packet count per connected master and slave (bytes)
system.acctest.local_bus.pkt_count_system.acctest.mem2cls.master::system.acctest.convolution0_dma.pio          112                       # Packet count per connected master and slave (bytes)
system.acctest.local_bus.pkt_count_system.acctest.mem2cls.master::system.acctest.edge_tracking0.pio           16                       # Packet count per connected master and slave (bytes)
system.acctest.local_bus.pkt_count_system.acctest.mem2cls.master::system.acctest.edge_tracking0_dma.pio           28                       # Packet count per connected master and slave (bytes)
system.acctest.local_bus.pkt_count_system.acctest.mem2cls.master::system.acctest.elem_matrix0.pio         5380                       # Packet count per connected master and slave (bytes)
system.acctest.local_bus.pkt_count_system.acctest.mem2cls.master::system.acctest.elem_matrix0_dma.pio         4606                       # Packet count per connected master and slave (bytes)
system.acctest.local_bus.pkt_count_system.acctest.mem2cls.master::system.acctest.grayscale0.pio           10                       # Packet count per connected master and slave (bytes)
system.acctest.local_bus.pkt_count_system.acctest.mem2cls.master::system.acctest.grayscale0_dma.pio           14                       # Packet count per connected master and slave (bytes)
system.acctest.local_bus.pkt_count_system.acctest.mem2cls.master::system.acctest.isp0.pio           12                       # Packet count per connected master and slave (bytes)
system.acctest.local_bus.pkt_count_system.acctest.mem2cls.master::system.acctest.isp0_dma.pio           14                       # Packet count per connected master and slave (bytes)
system.acctest.local_bus.pkt_count_system.acctest.mem2cls.master::total        10292                       # Packet count per connected master and slave (bytes)
system.acctest.local_bus.pkt_count_system.acctest.canny_non_max0_dma.dma::system.acctest.canny_non_max0_spm.port         8192                       # Packet count per connected master and slave (bytes)
system.acctest.local_bus.pkt_count_system.acctest.canny_non_max0_dma.dma::system.acctest.elem_matrix0_spm.port         4096                       # Packet count per connected master and slave (bytes)
system.acctest.local_bus.pkt_count_system.acctest.canny_non_max0_dma.dma::total        12288                       # Packet count per connected master and slave (bytes)
system.acctest.local_bus.pkt_count_system.acctest.convolution0_dma.dma::system.acctest.convolution0_spm.port        20496                       # Packet count per connected master and slave (bytes)
system.acctest.local_bus.pkt_count_system.acctest.convolution0_dma.dma::system.acctest.grayscale0_spm.port         4096                       # Packet count per connected master and slave (bytes)
system.acctest.local_bus.pkt_count_system.acctest.convolution0_dma.dma::total        24592                       # Packet count per connected master and slave (bytes)
system.acctest.local_bus.pkt_count_system.acctest.edge_tracking0_dma.dma::system.acctest.canny_non_max0_spm.port         4096                       # Packet count per connected master and slave (bytes)
system.acctest.local_bus.pkt_count_system.acctest.edge_tracking0_dma.dma::system.acctest.edge_tracking0_spm.port         5120                       # Packet count per connected master and slave (bytes)
system.acctest.local_bus.pkt_count_system.acctest.edge_tracking0_dma.dma::total         9216                       # Packet count per connected master and slave (bytes)
system.acctest.local_bus.pkt_count_system.acctest.elem_matrix0_dma.dma::system.acctest.elem_matrix0_spm.port      1347584                       # Packet count per connected master and slave (bytes)
system.acctest.local_bus.pkt_count_system.acctest.elem_matrix0_dma.dma::total      1347584                       # Packet count per connected master and slave (bytes)
system.acctest.local_bus.pkt_count_system.acctest.grayscale0_dma.dma::system.acctest.grayscale0_spm.port         3072                       # Packet count per connected master and slave (bytes)
system.acctest.local_bus.pkt_count_system.acctest.grayscale0_dma.dma::system.acctest.isp0_spm.port         3072                       # Packet count per connected master and slave (bytes)
system.acctest.local_bus.pkt_count_system.acctest.grayscale0_dma.dma::total         6144                       # Packet count per connected master and slave (bytes)
system.acctest.local_bus.pkt_count_system.acctest.isp0_dma.dma::system.acctest.isp0_spm.port         1058                       # Packet count per connected master and slave (bytes)
system.acctest.local_bus.pkt_count_system.acctest.isp0_dma.dma::total         1058                       # Packet count per connected master and slave (bytes)
system.acctest.local_bus.pkt_count::total      1411174                       # Packet count per connected master and slave (bytes)
system.acctest.local_bus.pkt_size_system.acctest.mem2cls.master::system.acctest.canny_non_max0.pio           15                       # Cumulative packet size per connected master and slave (bytes)
system.acctest.local_bus.pkt_size_system.acctest.mem2cls.master::system.acctest.canny_non_max0_dma.pio           44                       # Cumulative packet size per connected master and slave (bytes)
system.acctest.local_bus.pkt_size_system.acctest.mem2cls.master::system.acctest.convolution0.pio           84                       # Cumulative packet size per connected master and slave (bytes)
system.acctest.local_bus.pkt_size_system.acctest.mem2cls.master::system.acctest.convolution0_dma.pio          176                       # Cumulative packet size per connected master and slave (bytes)
system.acctest.local_bus.pkt_size_system.acctest.mem2cls.master::system.acctest.edge_tracking0.pio           23                       # Cumulative packet size per connected master and slave (bytes)
system.acctest.local_bus.pkt_size_system.acctest.mem2cls.master::system.acctest.edge_tracking0_dma.pio           44                       # Cumulative packet size per connected master and slave (bytes)
system.acctest.local_bus.pkt_size_system.acctest.mem2cls.master::system.acctest.elem_matrix0.pio         5918                       # Cumulative packet size per connected master and slave (bytes)
system.acctest.local_bus.pkt_size_system.acctest.mem2cls.master::system.acctest.elem_matrix0_dma.pio         7238                       # Cumulative packet size per connected master and slave (bytes)
system.acctest.local_bus.pkt_size_system.acctest.mem2cls.master::system.acctest.grayscale0.pio           11                       # Cumulative packet size per connected master and slave (bytes)
system.acctest.local_bus.pkt_size_system.acctest.mem2cls.master::system.acctest.grayscale0_dma.pio           22                       # Cumulative packet size per connected master and slave (bytes)
system.acctest.local_bus.pkt_size_system.acctest.mem2cls.master::system.acctest.isp0.pio           15                       # Cumulative packet size per connected master and slave (bytes)
system.acctest.local_bus.pkt_size_system.acctest.mem2cls.master::system.acctest.isp0_dma.pio           22                       # Cumulative packet size per connected master and slave (bytes)
system.acctest.local_bus.pkt_size_system.acctest.mem2cls.master::total        13612                       # Cumulative packet size per connected master and slave (bytes)
system.acctest.local_bus.pkt_size_system.acctest.canny_non_max0_dma.dma::system.acctest.canny_non_max0_spm.port       131072                       # Cumulative packet size per connected master and slave (bytes)
system.acctest.local_bus.pkt_size_system.acctest.canny_non_max0_dma.dma::system.acctest.elem_matrix0_spm.port        65536                       # Cumulative packet size per connected master and slave (bytes)
system.acctest.local_bus.pkt_size_system.acctest.canny_non_max0_dma.dma::total       196608                       # Cumulative packet size per connected master and slave (bytes)
system.acctest.local_bus.pkt_size_system.acctest.convolution0_dma.dma::system.acctest.convolution0_spm.port       327852                       # Cumulative packet size per connected master and slave (bytes)
system.acctest.local_bus.pkt_size_system.acctest.convolution0_dma.dma::system.acctest.grayscale0_spm.port        65536                       # Cumulative packet size per connected master and slave (bytes)
system.acctest.local_bus.pkt_size_system.acctest.convolution0_dma.dma::total       393388                       # Cumulative packet size per connected master and slave (bytes)
system.acctest.local_bus.pkt_size_system.acctest.edge_tracking0_dma.dma::system.acctest.canny_non_max0_spm.port        65536                       # Cumulative packet size per connected master and slave (bytes)
system.acctest.local_bus.pkt_size_system.acctest.edge_tracking0_dma.dma::system.acctest.edge_tracking0_spm.port        81920                       # Cumulative packet size per connected master and slave (bytes)
system.acctest.local_bus.pkt_size_system.acctest.edge_tracking0_dma.dma::total       147456                       # Cumulative packet size per connected master and slave (bytes)
system.acctest.local_bus.pkt_size_system.acctest.elem_matrix0_dma.dma::system.acctest.elem_matrix0_spm.port     21561344                       # Cumulative packet size per connected master and slave (bytes)
system.acctest.local_bus.pkt_size_system.acctest.elem_matrix0_dma.dma::total     21561344                       # Cumulative packet size per connected master and slave (bytes)
system.acctest.local_bus.pkt_size_system.acctest.grayscale0_dma.dma::system.acctest.grayscale0_spm.port        49152                       # Cumulative packet size per connected master and slave (bytes)
system.acctest.local_bus.pkt_size_system.acctest.grayscale0_dma.dma::system.acctest.isp0_spm.port        49152                       # Cumulative packet size per connected master and slave (bytes)
system.acctest.local_bus.pkt_size_system.acctest.grayscale0_dma.dma::total        98304                       # Cumulative packet size per connected master and slave (bytes)
system.acctest.local_bus.pkt_size_system.acctest.isp0_dma.dma::system.acctest.isp0_spm.port        16900                       # Cumulative packet size per connected master and slave (bytes)
system.acctest.local_bus.pkt_size_system.acctest.isp0_dma.dma::total        16900                       # Cumulative packet size per connected master and slave (bytes)
system.acctest.local_bus.pkt_size::total     22427612                       # Cumulative packet size per connected master and slave (bytes)
system.acctest.local_bus.occupancy         2450572875                       # Network occupancy (ticks)
system.acctest.local_bus.utilization             20.1                       # Network utilization (%)
system.acctest.local_bus.reqLayer0.occupancy   2014144164                       # Layer occupancy (ticks)
system.acctest.local_bus.reqLayer0.utilization         16.5                       # Layer utilization (%)
system.acctest.local_bus.respLayer0.occupancy   1070899000                       # Layer occupancy (ticks)
system.acctest.local_bus.respLayer0.utilization          8.8                       # Layer utilization (%)
system.acctest.isp0.pwrStateResidencyTicks::UNDEFINED  18953795000                       # Cumulative time (in ticks) in various power states
system.acctest.edge_tracking0.pwrStateResidencyTicks::UNDEFINED  18953795000                       # Cumulative time (in ticks) in various power states
system.acctest.grayscale0_spm.pwrStateResidencyTicks::UNDEFINED  18953795000                       # Cumulative time (in ticks) in various power states
system.acctest.grayscale0_spm.bytes_read::.acctest.convolution0_dma        65536                       # Number of bytes read from this memory
system.acctest.grayscale0_spm.bytes_read::.acctest.grayscale0.system.acctest.grayscale0        49152                       # Number of bytes read from this memory
system.acctest.grayscale0_spm.bytes_read::total       114688                       # Number of bytes read from this memory
system.acctest.grayscale0_spm.bytes_written::.acctest.grayscale0.system.acctest.grayscale0        65536                       # Number of bytes written to this memory
system.acctest.grayscale0_spm.bytes_written::.acctest.grayscale0_dma        49152                       # Number of bytes written to this memory
system.acctest.grayscale0_spm.bytes_written::total       114688                       # Number of bytes written to this memory
system.acctest.grayscale0_spm.num_reads::.acctest.convolution0_dma         2048                       # Number of read requests responded to by this memory
system.acctest.grayscale0_spm.num_reads::.acctest.grayscale0.system.acctest.grayscale0        49152                       # Number of read requests responded to by this memory
system.acctest.grayscale0_spm.num_reads::total        51200                       # Number of read requests responded to by this memory
system.acctest.grayscale0_spm.num_writes::.acctest.grayscale0.system.acctest.grayscale0        16384                       # Number of write requests responded to by this memory
system.acctest.grayscale0_spm.num_writes::.acctest.grayscale0_dma         1536                       # Number of write requests responded to by this memory
system.acctest.grayscale0_spm.num_writes::total        17920                       # Number of write requests responded to by this memory
system.acctest.grayscale0_spm.bw_read::.acctest.convolution0_dma      5381711                       # Total read bandwidth from this memory (bytes/s)
system.acctest.grayscale0_spm.bw_read::.acctest.grayscale0.system.acctest.grayscale0      4036284                       # Total read bandwidth from this memory (bytes/s)
system.acctest.grayscale0_spm.bw_read::total      9417995                       # Total read bandwidth from this memory (bytes/s)
system.acctest.grayscale0_spm.bw_write::.acctest.grayscale0.system.acctest.grayscale0      5381711                       # Write bandwidth from this memory (bytes/s)
system.acctest.grayscale0_spm.bw_write::.acctest.grayscale0_dma      4036284                       # Write bandwidth from this memory (bytes/s)
system.acctest.grayscale0_spm.bw_write::total      9417995                       # Write bandwidth from this memory (bytes/s)
system.acctest.grayscale0_spm.bw_total::.acctest.convolution0_dma      5381711                       # Total bandwidth to/from this memory (bytes/s)
system.acctest.grayscale0_spm.bw_total::.acctest.grayscale0.system.acctest.grayscale0      9417995                       # Total bandwidth to/from this memory (bytes/s)
system.acctest.grayscale0_spm.bw_total::.acctest.grayscale0_dma      4036284                       # Total bandwidth to/from this memory (bytes/s)
system.acctest.grayscale0_spm.bw_total::total     18835990                       # Total bandwidth to/from this memory (bytes/s)
system.acctest.elem_matrix1_dma.pwrStateResidencyTicks::UNDEFINED  18953795000                       # Cumulative time (in ticks) in various power states
system.acctest.mem2cls.pwrStateResidencyTicks::UNDEFINED  18953795000                       # Cumulative time (in ticks) in various power states
system.acctest.isp0_dma.pwrStateResidencyTicks::UNDEFINED  18953795000                       # Cumulative time (in ticks) in various power states
system.acctest.grayscale0_dma.pwrStateResidencyTicks::UNDEFINED  18953795000                       # Cumulative time (in ticks) in various power states
system.acctest.convolution0.pwrStateResidencyTicks::UNDEFINED  18953795000                       # Cumulative time (in ticks) in various power states
system.acctest.convolution1.pwrStateResidencyTicks::UNDEFINED  18953795000                       # Cumulative time (in ticks) in various power states
system.acctest.isp0_spm.pwrStateResidencyTicks::UNDEFINED  18953795000                       # Cumulative time (in ticks) in various power states
system.acctest.isp0_spm.bytes_read::.acctest.grayscale0_dma        49152                       # Number of bytes read from this memory
system.acctest.isp0_spm.bytes_read::.acctest.isp0.system.acctest.isp0       114688                       # Number of bytes read from this memory
system.acctest.isp0_spm.bytes_read::total       163840                       # Number of bytes read from this memory
system.acctest.isp0_spm.bytes_written::.acctest.isp0.system.acctest.isp0        49152                       # Number of bytes written to this memory
system.acctest.isp0_spm.bytes_written::.acctest.isp0_dma        16900                       # Number of bytes written to this memory
system.acctest.isp0_spm.bytes_written::total        66052                       # Number of bytes written to this memory
system.acctest.isp0_spm.num_reads::.acctest.grayscale0_dma         1536                       # Number of read requests responded to by this memory
system.acctest.isp0_spm.num_reads::.acctest.isp0.system.acctest.isp0       114688                       # Number of read requests responded to by this memory
system.acctest.isp0_spm.num_reads::total       116224                       # Number of read requests responded to by this memory
system.acctest.isp0_spm.num_writes::.acctest.isp0.system.acctest.isp0        49152                       # Number of write requests responded to by this memory
system.acctest.isp0_spm.num_writes::.acctest.isp0_dma          529                       # Number of write requests responded to by this memory
system.acctest.isp0_spm.num_writes::total        49681                       # Number of write requests responded to by this memory
system.acctest.isp0_spm.bw_read::.acctest.grayscale0_dma      4036284                       # Total read bandwidth from this memory (bytes/s)
system.acctest.isp0_spm.bw_read::.acctest.isp0.system.acctest.isp0      9417995                       # Total read bandwidth from this memory (bytes/s)
system.acctest.isp0_spm.bw_read::total       13454279                       # Total read bandwidth from this memory (bytes/s)
system.acctest.isp0_spm.bw_write::.acctest.isp0.system.acctest.isp0      4036284                       # Write bandwidth from this memory (bytes/s)
system.acctest.isp0_spm.bw_write::.acctest.isp0_dma      1387801                       # Write bandwidth from this memory (bytes/s)
system.acctest.isp0_spm.bw_write::total       5424085                       # Write bandwidth from this memory (bytes/s)
system.acctest.isp0_spm.bw_total::.acctest.grayscale0_dma      4036284                       # Total bandwidth to/from this memory (bytes/s)
system.acctest.isp0_spm.bw_total::.acctest.isp0.system.acctest.isp0     13454279                       # Total bandwidth to/from this memory (bytes/s)
system.acctest.isp0_spm.bw_total::.acctest.isp0_dma      1387801                       # Total bandwidth to/from this memory (bytes/s)
system.acctest.isp0_spm.bw_total::total      18878363                       # Total bandwidth to/from this memory (bytes/s)
system.acctest.coherency_bus.pwrStateResidencyTicks::UNDEFINED  18953795000                       # Cumulative time (in ticks) in various power states
system.acctest.coherency_bus.trans_dist::ReadReq       255245                       # Transaction distribution
system.acctest.coherency_bus.trans_dist::ReadResp       255245                       # Transaction distribution
system.acctest.coherency_bus.trans_dist::WriteReq        87296                       # Transaction distribution
system.acctest.coherency_bus.trans_dist::WriteResp        87296                       # Transaction distribution
system.acctest.coherency_bus.pkt_count_system.acctest.canny_non_max0_dma.dma::system.membus.slave[7]         2048                       # Packet count per connected master and slave (bytes)
system.acctest.coherency_bus.pkt_count_system.acctest.convolution0_dma.dma::system.membus.slave[7]         8200                       # Packet count per connected master and slave (bytes)
system.acctest.coherency_bus.pkt_count_system.acctest.edge_tracking0_dma.dma::system.membus.slave[7]          512                       # Packet count per connected master and slave (bytes)
system.acctest.coherency_bus.pkt_count_system.acctest.elem_matrix0_dma.dma::system.membus.slave[7]       673792                       # Packet count per connected master and slave (bytes)
system.acctest.coherency_bus.pkt_count_system.acctest.isp0_dma.dma::system.membus.slave[7]          530                       # Packet count per connected master and slave (bytes)
system.acctest.coherency_bus.pkt_count::total       685082                       # Packet count per connected master and slave (bytes)
system.acctest.coherency_bus.pkt_size_system.acctest.canny_non_max0_dma.dma::system.membus.slave[7]        65536                       # Cumulative packet size per connected master and slave (bytes)
system.acctest.coherency_bus.pkt_size_system.acctest.convolution0_dma.dma::system.membus.slave[7]       262316                       # Cumulative packet size per connected master and slave (bytes)
system.acctest.coherency_bus.pkt_size_system.acctest.edge_tracking0_dma.dma::system.membus.slave[7]        16384                       # Cumulative packet size per connected master and slave (bytes)
system.acctest.coherency_bus.pkt_size_system.acctest.elem_matrix0_dma.dma::system.membus.slave[7]     21561344                       # Cumulative packet size per connected master and slave (bytes)
system.acctest.coherency_bus.pkt_size_system.acctest.isp0_dma.dma::system.membus.slave[7]        16900                       # Cumulative packet size per connected master and slave (bytes)
system.acctest.coherency_bus.pkt_size::total     21922480                       # Cumulative packet size per connected master and slave (bytes)
system.acctest.coherency_bus.snoops                 0                       # Total snoops (count)
system.acctest.coherency_bus.snoopTraffic            0                       # Total snoop traffic (bytes)
system.acctest.coherency_bus.snoop_fanout::samples       406575                       # Request fanout histogram
system.acctest.coherency_bus.snoop_fanout::mean            0                       # Request fanout histogram
system.acctest.coherency_bus.snoop_fanout::stdev            0                       # Request fanout histogram
system.acctest.coherency_bus.snoop_fanout::underflows            0      0.00%      0.00% # Request fanout histogram
system.acctest.coherency_bus.snoop_fanout::0       406575    100.00%    100.00% # Request fanout histogram
system.acctest.coherency_bus.snoop_fanout::overflows            0      0.00%    100.00% # Request fanout histogram
system.acctest.coherency_bus.snoop_fanout::min_value            0                       # Request fanout histogram
system.acctest.coherency_bus.snoop_fanout::max_value            0                       # Request fanout histogram
system.acctest.coherency_bus.snoop_fanout::total       406575                       # Request fanout histogram
system.acctest.coherency_bus.reqLayer0.occupancy    851699125                       # Layer occupancy (ticks)
system.acctest.coherency_bus.reqLayer0.utilization          7.0                       # Layer utilization (%)
system.acctest.coherency_bus.respLayer0.occupancy   1363515000                       # Layer occupancy (ticks)
system.acctest.coherency_bus.respLayer0.utilization         11.2                       # Layer utilization (%)
system.acctest.convolution0_spm.pwrStateResidencyTicks::UNDEFINED  18953795000                       # Cumulative time (in ticks) in various power states
system.acctest.convolution0_spm.bytes_read::.acctest.convolution0.system.acctest.convolution0      5550432                       # Number of bytes read from this memory
system.acctest.convolution0_spm.bytes_read::.acctest.convolution0_dma       196608                       # Number of bytes read from this memory
system.acctest.convolution0_spm.bytes_read::total      5747040                       # Number of bytes read from this memory
system.acctest.convolution0_spm.bytes_written::.acctest.convolution0.system.acctest.convolution0       196608                       # Number of bytes written to this memory
system.acctest.convolution0_spm.bytes_written::.acctest.convolution0_dma       131244                       # Number of bytes written to this memory
system.acctest.convolution0_spm.bytes_written::total       327852                       # Number of bytes written to this memory
system.acctest.convolution0_spm.num_reads::.acctest.convolution0.system.acctest.convolution0      1387608                       # Number of read requests responded to by this memory
system.acctest.convolution0_spm.num_reads::.acctest.convolution0_dma         6144                       # Number of read requests responded to by this memory
system.acctest.convolution0_spm.num_reads::total      1393752                       # Number of read requests responded to by this memory
system.acctest.convolution0_spm.num_writes::.acctest.convolution0.system.acctest.convolution0        49152                       # Number of write requests responded to by this memory
system.acctest.convolution0_spm.num_writes::.acctest.convolution0_dma         4104                       # Number of write requests responded to by this memory
system.acctest.convolution0_spm.num_writes::total        53256                       # Number of write requests responded to by this memory
system.acctest.convolution0_spm.bw_read::.acctest.convolution0.system.acctest.convolution0    455792596                       # Total read bandwidth from this memory (bytes/s)
system.acctest.convolution0_spm.bw_read::.acctest.convolution0_dma     16145134                       # Total read bandwidth from this memory (bytes/s)
system.acctest.convolution0_spm.bw_read::total    471937730                       # Total read bandwidth from this memory (bytes/s)
system.acctest.convolution0_spm.bw_write::.acctest.convolution0.system.acctest.convolution0     16145134                       # Write bandwidth from this memory (bytes/s)
system.acctest.convolution0_spm.bw_write::.acctest.convolution0_dma     10777547                       # Write bandwidth from this memory (bytes/s)
system.acctest.convolution0_spm.bw_write::total     26922682                       # Write bandwidth from this memory (bytes/s)
system.acctest.convolution0_spm.bw_total::.acctest.convolution0.system.acctest.convolution0    471937730                       # Total bandwidth to/from this memory (bytes/s)
system.acctest.convolution0_spm.bw_total::.acctest.convolution0_dma     26922682                       # Total bandwidth to/from this memory (bytes/s)
system.acctest.convolution0_spm.bw_total::total    498860412                       # Total bandwidth to/from this memory (bytes/s)
system.acctest.elem_matrix0_dma.pwrStateResidencyTicks::UNDEFINED  18953795000                       # Cumulative time (in ticks) in various power states
system.acctest.grayscale0.pwrStateResidencyTicks::UNDEFINED  18953795000                       # Cumulative time (in ticks) in various power states
system.acctest.canny_non_max0.pwrStateResidencyTicks::UNDEFINED  18953795000                       # Cumulative time (in ticks) in various power states
system.acctest.elem_matrix0_spm.pwrStateResidencyTicks::UNDEFINED  18953795000                       # Cumulative time (in ticks) in various power states
system.acctest.elem_matrix0_spm.bytes_read::.acctest.canny_non_max0_dma        65536                       # Number of bytes read from this memory
system.acctest.elem_matrix0_spm.bytes_read::.acctest.elem_matrix0.system.acctest.elem_matrix0     30867456                       # Number of bytes read from this memory
system.acctest.elem_matrix0_spm.bytes_read::.acctest.elem_matrix0_dma      5373952                       # Number of bytes read from this memory
system.acctest.elem_matrix0_spm.bytes_read::total     36306944                       # Number of bytes read from this memory
system.acctest.elem_matrix0_spm.bytes_written::.acctest.elem_matrix0.system.acctest.elem_matrix0     17629184                       # Number of bytes written to this memory
system.acctest.elem_matrix0_spm.bytes_written::.acctest.elem_matrix0_dma     16187392                       # Number of bytes written to this memory
system.acctest.elem_matrix0_spm.bytes_written::total     33816576                       # Number of bytes written to this memory
system.acctest.elem_matrix0_spm.num_reads::.acctest.canny_non_max0_dma         2048                       # Number of read requests responded to by this memory
system.acctest.elem_matrix0_spm.num_reads::.acctest.elem_matrix0.system.acctest.elem_matrix0      7716864                       # Number of read requests responded to by this memory
system.acctest.elem_matrix0_spm.num_reads::.acctest.elem_matrix0_dma       167936                       # Number of read requests responded to by this memory
system.acctest.elem_matrix0_spm.num_reads::total      7886848                       # Number of read requests responded to by this memory
system.acctest.elem_matrix0_spm.num_writes::.acctest.elem_matrix0.system.acctest.elem_matrix0      4407296                       # Number of write requests responded to by this memory
system.acctest.elem_matrix0_spm.num_writes::.acctest.elem_matrix0_dma       505856                       # Number of write requests responded to by this memory
system.acctest.elem_matrix0_spm.num_writes::total      4913152                       # Number of write requests responded to by this memory
system.acctest.elem_matrix0_spm.bw_read::.acctest.canny_non_max0_dma      5381711                       # Total read bandwidth from this memory (bytes/s)
system.acctest.elem_matrix0_spm.bw_read::.acctest.elem_matrix0.system.acctest.elem_matrix0   2534786104                       # Total read bandwidth from this memory (bytes/s)
system.acctest.elem_matrix0_spm.bw_read::.acctest.elem_matrix0_dma    441300341                       # Total read bandwidth from this memory (bytes/s)
system.acctest.elem_matrix0_spm.bw_read::total   2981468156                       # Total read bandwidth from this memory (bytes/s)
system.acctest.elem_matrix0_spm.bw_write::.acctest.elem_matrix0.system.acctest.elem_matrix0   1447680386                       # Write bandwidth from this memory (bytes/s)
system.acctest.elem_matrix0_spm.bw_write::.acctest.elem_matrix0_dma   1329282734                       # Write bandwidth from this memory (bytes/s)
system.acctest.elem_matrix0_spm.bw_write::total   2776963120                       # Write bandwidth from this memory (bytes/s)
system.acctest.elem_matrix0_spm.bw_total::.acctest.canny_non_max0_dma      5381711                       # Total bandwidth to/from this memory (bytes/s)
system.acctest.elem_matrix0_spm.bw_total::.acctest.elem_matrix0.system.acctest.elem_matrix0   3982466490                       # Total bandwidth to/from this memory (bytes/s)
system.acctest.elem_matrix0_spm.bw_total::.acctest.elem_matrix0_dma   1770583075                       # Total bandwidth to/from this memory (bytes/s)
system.acctest.elem_matrix0_spm.bw_total::total   5758431276                       # Total bandwidth to/from this memory (bytes/s)
system.acctest.convolution0_dma.pwrStateResidencyTicks::UNDEFINED  18953795000                       # Cumulative time (in ticks) in various power states
system.acctest.convolution1_spm.pwrStateResidencyTicks::UNDEFINED  18953795000                       # Cumulative time (in ticks) in various power states
system.acctest.elem_matrix3_dma.pwrStateResidencyTicks::UNDEFINED  18953795000                       # Cumulative time (in ticks) in various power states
system.acctest.edge_tracking0_spm.pwrStateResidencyTicks::UNDEFINED  18953795000                       # Cumulative time (in ticks) in various power states
system.acctest.edge_tracking0_spm.bytes_read::.acctest.edge_tracking0.system.acctest.edge_tracking0       194576                       # Number of bytes read from this memory
system.acctest.edge_tracking0_spm.bytes_read::.acctest.edge_tracking0_dma        16384                       # Number of bytes read from this memory
system.acctest.edge_tracking0_spm.bytes_read::total       210960                       # Number of bytes read from this memory
system.acctest.edge_tracking0_spm.bytes_written::.acctest.edge_tracking0.system.acctest.edge_tracking0        81920                       # Number of bytes written to this memory
system.acctest.edge_tracking0_spm.bytes_written::.acctest.edge_tracking0_dma        65536                       # Number of bytes written to this memory
system.acctest.edge_tracking0_spm.bytes_written::total       147456                       # Number of bytes written to this memory
system.acctest.edge_tracking0_spm.num_reads::.acctest.edge_tracking0.system.acctest.edge_tracking0        48644                       # Number of read requests responded to by this memory
system.acctest.edge_tracking0_spm.num_reads::.acctest.edge_tracking0_dma          512                       # Number of read requests responded to by this memory
system.acctest.edge_tracking0_spm.num_reads::total        49156                       # Number of read requests responded to by this memory
system.acctest.edge_tracking0_spm.num_writes::.acctest.edge_tracking0.system.acctest.edge_tracking0        32768                       # Number of write requests responded to by this memory
system.acctest.edge_tracking0_spm.num_writes::.acctest.edge_tracking0_dma         2048                       # Number of write requests responded to by this memory
system.acctest.edge_tracking0_spm.num_writes::total        34816                       # Number of write requests responded to by this memory
system.acctest.edge_tracking0_spm.bw_read::.acctest.edge_tracking0.system.acctest.edge_tracking0     15978270                       # Total read bandwidth from this memory (bytes/s)
system.acctest.edge_tracking0_spm.bw_read::.acctest.edge_tracking0_dma      1345428                       # Total read bandwidth from this memory (bytes/s)
system.acctest.edge_tracking0_spm.bw_read::total     17323698                       # Total read bandwidth from this memory (bytes/s)
system.acctest.edge_tracking0_spm.bw_write::.acctest.edge_tracking0.system.acctest.edge_tracking0      6727139                       # Write bandwidth from this memory (bytes/s)
system.acctest.edge_tracking0_spm.bw_write::.acctest.edge_tracking0_dma      5381711                       # Write bandwidth from this memory (bytes/s)
system.acctest.edge_tracking0_spm.bw_write::total     12108851                       # Write bandwidth from this memory (bytes/s)
system.acctest.edge_tracking0_spm.bw_total::.acctest.edge_tracking0.system.acctest.edge_tracking0     22705409                       # Total bandwidth to/from this memory (bytes/s)
system.acctest.edge_tracking0_spm.bw_total::.acctest.edge_tracking0_dma      6727139                       # Total bandwidth to/from this memory (bytes/s)
system.acctest.edge_tracking0_spm.bw_total::total     29432549                       # Total bandwidth to/from this memory (bytes/s)
system.acctest.canny_non_max0_spm.pwrStateResidencyTicks::UNDEFINED  18953795000                       # Cumulative time (in ticks) in various power states
system.acctest.canny_non_max0_spm.bytes_read::.acctest.canny_non_max0.system.acctest.canny_non_max0       254016                       # Number of bytes read from this memory
system.acctest.canny_non_max0_spm.bytes_read::.acctest.edge_tracking0_dma        65536                       # Number of bytes read from this memory
system.acctest.canny_non_max0_spm.bytes_read::total       319552                       # Number of bytes read from this memory
system.acctest.canny_non_max0_spm.bytes_written::.acctest.canny_non_max0.system.acctest.canny_non_max0        65536                       # Number of bytes written to this memory
system.acctest.canny_non_max0_spm.bytes_written::.acctest.canny_non_max0_dma       131072                       # Number of bytes written to this memory
system.acctest.canny_non_max0_spm.bytes_written::total       196608                       # Number of bytes written to this memory
system.acctest.canny_non_max0_spm.num_reads::.acctest.canny_non_max0.system.acctest.canny_non_max0        63504                       # Number of read requests responded to by this memory
system.acctest.canny_non_max0_spm.num_reads::.acctest.edge_tracking0_dma         2048                       # Number of read requests responded to by this memory
system.acctest.canny_non_max0_spm.num_reads::total        65552                       # Number of read requests responded to by this memory
system.acctest.canny_non_max0_spm.num_writes::.acctest.canny_non_max0.system.acctest.canny_non_max0        16384                       # Number of write requests responded to by this memory
system.acctest.canny_non_max0_spm.num_writes::.acctest.canny_non_max0_dma         4096                       # Number of write requests responded to by this memory
system.acctest.canny_non_max0_spm.num_writes::total        20480                       # Number of write requests responded to by this memory
system.acctest.canny_non_max0_spm.bw_read::.acctest.canny_non_max0.system.acctest.canny_non_max0     20859388                       # Total read bandwidth from this memory (bytes/s)
system.acctest.canny_non_max0_spm.bw_read::.acctest.edge_tracking0_dma      5381711                       # Total read bandwidth from this memory (bytes/s)
system.acctest.canny_non_max0_spm.bw_read::total     26241099                       # Total read bandwidth from this memory (bytes/s)
system.acctest.canny_non_max0_spm.bw_write::.acctest.canny_non_max0.system.acctest.canny_non_max0      5381711                       # Write bandwidth from this memory (bytes/s)
system.acctest.canny_non_max0_spm.bw_write::.acctest.canny_non_max0_dma     10763423                       # Write bandwidth from this memory (bytes/s)
system.acctest.canny_non_max0_spm.bw_write::total     16145134                       # Write bandwidth from this memory (bytes/s)
system.acctest.canny_non_max0_spm.bw_total::.acctest.canny_non_max0.system.acctest.canny_non_max0     26241099                       # Total bandwidth to/from this memory (bytes/s)
system.acctest.canny_non_max0_spm.bw_total::.acctest.canny_non_max0_dma     10763423                       # Total bandwidth to/from this memory (bytes/s)
system.acctest.canny_non_max0_spm.bw_total::.acctest.edge_tracking0_dma      5381711                       # Total bandwidth to/from this memory (bytes/s)
system.acctest.canny_non_max0_spm.bw_total::total     42386233                       # Total bandwidth to/from this memory (bytes/s)
system.acctest.canny_non_max0_dma.pwrStateResidencyTicks::UNDEFINED  18953795000                       # Cumulative time (in ticks) in various power states
system.acctest.convolution1_dma.pwrStateResidencyTicks::UNDEFINED  18953795000                       # Cumulative time (in ticks) in various power states
system.acctest.elem_matrix1_spm.pwrStateResidencyTicks::UNDEFINED  18953795000                       # Cumulative time (in ticks) in various power states
system.acctest.elem_matrix2_dma.pwrStateResidencyTicks::UNDEFINED  18953795000                       # Cumulative time (in ticks) in various power states
system.acctest.harris_non_max0.pwrStateResidencyTicks::UNDEFINED  18953795000                       # Cumulative time (in ticks) in various power states
system.acctest.edge_tracking0_dma.pwrStateResidencyTicks::UNDEFINED  18953795000                       # Cumulative time (in ticks) in various power states
system.acctest.harris_non_max0_dma.pwrStateResidencyTicks::UNDEFINED  18953795000                       # Cumulative time (in ticks) in various power states
system.acctest.elem_matrix1.pwrStateResidencyTicks::UNDEFINED  18953795000                       # Cumulative time (in ticks) in various power states
system.acctest.elem_matrix0.pwrStateResidencyTicks::UNDEFINED  18953795000                       # Cumulative time (in ticks) in various power states
[...]
system.cpu.icache.tags.warmup_cycle                 0                       # Cycle when the warmup percentage was hit.
system.cpu.icache.tags.occ_blocks::.cpu.inst   452.764214                       # Average occupied blocks per requestor
system.cpu.icache.tags.occ_percent::.cpu.inst     0.884305                       # Average percentage of cache occupancy
system.cpu.icache.tags.occ_percent::total     0.884305                       # Average percentage of cache occupancy
system.cpu.icache.tags.occ_task_id_blocks::1024          459                       # Occupied blocks per task id
system.cpu.icache.tags.age_task_id_blocks_1024::0            4                       # Occupied blocks per task id
system.cpu.icache.tags.age_task_id_blocks_1024::2           23                       # Occupied blocks per task id
system.cpu.icache.tags.age_task_id_blocks_1024::3            1                       # Occupied blocks per task id
system.cpu.icache.tags.age_task_id_blocks_1024::4          431                       # Occupied blocks per task id
system.cpu.icache.tags.occ_task_id_percent::1024     0.896484                       # Percentage of cache occupancy per task id
system.cpu.icache.tags.tag_accesses           2812985                       # Number of tag accesses
system.cpu.icache.tags.data_accesses          2812985                       # Number of data accesses
system.cpu.dtb.walker.pwrStateResidencyTicks::UNDEFINED  18954001250                       # Cumulative time (in ticks) in various power states
system.cpu.dtb.stage2_mmu.stage2_tlb.walker.pwrStateResidencyTicks::UNDEFINED  18954001250                       # Cumulative time (in ticks) in various power states
system.cpu.dcache.pwrStateResidencyTicks::UNDEFINED  18954001250                       # Cumulative time (in ticks) in various power states
system.cpu.dcache.demand_hits::.cpu.data       241739                       # number of demand (read+write) hits
system.cpu.dcache.demand_hits::total           241739                       # number of demand (read+write) hits
system.cpu.dcache.overall_hits::.cpu.data       241739                       # number of overall hits
system.cpu.dcache.overall_hits::total          241739                       # number of overall hits
system.cpu.dcache.demand_misses::.cpu.data         1197                       # number of demand (read+write) misses
system.cpu.dcache.demand_misses::total           1197                       # number of demand (read+write) misses
system.cpu.dcache.overall_misses::.cpu.data         1197                       # number of overall misses
system.cpu.dcache.overall_misses::total          1197                       # number of overall misses
system.cpu.dcache.demand_miss_latency::.cpu.data     91673000                       # number of demand (read+write) miss cycles
system.cpu.dcache.demand_miss_latency::total     91673000                       # number of demand (read+write) miss cycles
system.cpu.dcache.overall_miss_latency::.cpu.data     91673000                       # number of overall miss cycles
system.cpu.dcache.overall_miss_latency::total     91673000                       # number of overall miss cycles
system.cpu.dcache.demand_accesses::.cpu.data       242936                       # number of demand (read+write) accesses
system.cpu.dcache.demand_accesses::total       242936                       # number of demand (read+write) accesses
system.cpu.dcache.overall_accesses::.cpu.data       242936                       # number of overall (read+write) accesses
system.cpu.dcache.overall_accesses::total       242936                       # number of overall (read+write) accesses
system.cpu.dcache.demand_miss_rate::.cpu.data     0.004927                       # miss rate for demand accesses
system.cpu.dcache.demand_miss_rate::total     0.004927                       # miss rate for demand accesses
system.cpu.dcache.overall_miss_rate::.cpu.data     0.004927                       # miss rate for overall accesses
system.cpu.dcache.overall_miss_rate::total     0.004927                       # miss rate for overall accesses
system.cpu.dcache.demand_avg_miss_latency::.cpu.data 76585.630744                       # average overall miss latency
system.cpu.dcache.demand_avg_miss_latency::total 76585.630744                       # average overall miss latency
system.cpu.dcache.overall_avg_miss_latency::.cpu.data 76585.630744                       # average overall miss latency
system.cpu.dcache.overall_avg_miss_latency::total 76585.630744                       # average overall miss latency
system.cpu.dcache.blocked_cycles::no_mshrs            0                       # number of cycles access was blocked
system.cpu.dcache.blocked_cycles::no_targets            0                       # number of cycles access was blocked
system.cpu.dcache.blocked::no_mshrs                 0                       # number of cycles access was blocked
system.cpu.dcache.blocked::no_targets               0                       # number of cycles access was blocked
system.cpu.dcache.avg_blocked_cycles::no_mshrs          nan                       # average number of cycles each access was blocked
system.cpu.dcache.avg_blocked_cycles::no_targets          nan                       # average number of cycles each access was blocked
system.cpu.dcache.writebacks::.writebacks          631                       # number of writebacks
system.cpu.dcache.writebacks::total               631                       # number of writebacks
system.cpu.dcache.demand_mshr_hits::.cpu.data          248                       # number of demand (read+write) MSHR hits
system.cpu.dcache.demand_mshr_hits::total          248                       # number of demand (read+write) MSHR hits
system.cpu.dcache.overall_mshr_hits::.cpu.data          248                       # number of overall MSHR hits
system.cpu.dcache.overall_mshr_hits::total          248                       # number of overall MSHR hits
system.cpu.dcache.demand_mshr_misses::.cpu.data          949                       # number of demand (read+write) MSHR misses
system.cpu.dcache.demand_mshr_misses::total          949                       # number of demand (read+write) MSHR misses
system.cpu.dcache.overall_mshr_misses::.cpu.data          949                       # number of overall MSHR misses
system.cpu.dcache.overall_mshr_misses::total          949                       # number of overall MSHR misses
system.cpu.dcache.overall_mshr_uncacheable_misses::.cpu.data         6384                       # number of overall MSHR uncacheable misses
system.cpu.dcache.overall_mshr_uncacheable_misses::total         6384                       # number of overall MSHR uncacheable misses
system.cpu.dcache.demand_mshr_miss_latency::.cpu.data     71536500                       # number of demand (read+write) MSHR miss cycles
system.cpu.dcache.demand_mshr_miss_latency::total     71536500                       # number of demand (read+write) MSHR miss cycles
system.cpu.dcache.overall_mshr_miss_latency::.cpu.data     71536500                       # number of overall MSHR miss cycles
system.cpu.dcache.overall_mshr_miss_latency::total     71536500                       # number of overall MSHR miss cycles
system.cpu.dcache.overall_mshr_uncacheable_latency::.cpu.data     13465125                       # number of overall MSHR uncacheable cycles
system.cpu.dcache.overall_mshr_uncacheable_latency::total     13465125                       # number of overall MSHR uncacheable cycles
system.cpu.dcache.demand_mshr_miss_rate::.cpu.data     0.003906                       # mshr miss rate for demand accesses
system.cpu.dcache.demand_mshr_miss_rate::total     0.003906                       # mshr miss rate for demand accesses
system.cpu.dcache.overall_mshr_miss_rate::.cpu.data     0.003906                       # mshr miss rate for overall accesses
system.cpu.dcache.overall_mshr_miss_rate::total     0.003906                       # mshr miss rate for overall accesses
system.cpu.dcache.demand_avg_mshr_miss_latency::.cpu.data 75380.927292                       # average overall mshr miss latency
system.cpu.dcache.demand_avg_mshr_miss_latency::total 75380.927292                       # average overall mshr miss latency
system.cpu.dcache.overall_avg_mshr_miss_latency::.cpu.data 75380.927292                       # average overall mshr miss latency
system.cpu.dcache.overall_avg_mshr_miss_latency::total 75380.927292                       # average overall mshr miss latency
system.cpu.dcache.overall_avg_mshr_uncacheable_latency::.cpu.data  2109.198778                       # average overall mshr uncacheable latency
system.cpu.dcache.overall_avg_mshr_uncacheable_latency::total  2109.198778                       # average overall mshr uncacheable latency
system.cpu.dcache.replacements                    949                       # number of replacements
system.cpu.dcache.ReadReq_hits::.cpu.data       151959                       # number of ReadReq hits
system.cpu.dcache.ReadReq_hits::total          151959                       # number of ReadReq hits
system.cpu.dcache.ReadReq_misses::.cpu.data          710                       # number of ReadReq misses
system.cpu.dcache.ReadReq_misses::total           710                       # number of ReadReq misses
system.cpu.dcache.ReadReq_miss_latency::.cpu.data     55187625                       # number of ReadReq miss cycles
system.cpu.dcache.ReadReq_miss_latency::total     55187625                       # number of ReadReq miss cycles
system.cpu.dcache.ReadReq_accesses::.cpu.data       152669                       # number of ReadReq accesses(hits+misses)
system.cpu.dcache.ReadReq_accesses::total       152669                       # number of ReadReq accesses(hits+misses)
system.cpu.dcache.ReadReq_miss_rate::.cpu.data     0.004651                       # miss rate for ReadReq accesses
system.cpu.dcache.ReadReq_miss_rate::total     0.004651                       # miss rate for ReadReq accesses
system.cpu.dcache.ReadReq_avg_miss_latency::.cpu.data 77729.049296                       # average ReadReq miss latency
system.cpu.dcache.ReadReq_avg_miss_latency::total 77729.049296                       # average ReadReq miss latency
system.cpu.dcache.ReadReq_mshr_hits::.cpu.data           13                       # number of ReadReq MSHR hits
system.cpu.dcache.ReadReq_mshr_hits::total           13                       # number of ReadReq MSHR hits
system.cpu.dcache.ReadReq_mshr_misses::.cpu.data          697                       # number of ReadReq MSHR misses
system.cpu.dcache.ReadReq_mshr_misses::total          697                       # number of ReadReq MSHR misses
system.cpu.dcache.ReadReq_mshr_uncacheable::.cpu.data          619                       # number of ReadReq MSHR uncacheable
system.cpu.dcache.ReadReq_mshr_uncacheable::total          619                       # number of ReadReq MSHR uncacheable
system.cpu.dcache.ReadReq_mshr_miss_latency::.cpu.data     53216500                       # number of ReadReq MSHR miss cycles
system.cpu.dcache.ReadReq_mshr_miss_latency::total     53216500                       # number of ReadReq MSHR miss cycles
system.cpu.dcache.ReadReq_mshr_uncacheable_latency::.cpu.data     13465125                       # number of ReadReq MSHR uncacheable cycles
system.cpu.dcache.ReadReq_mshr_uncacheable_latency::total     13465125                       # number of ReadReq MSHR uncacheable cycles
system.cpu.dcache.ReadReq_mshr_miss_rate::.cpu.data     0.004565                       # mshr miss rate for ReadReq accesses
system.cpu.dcache.ReadReq_mshr_miss_rate::total     0.004565                       # mshr miss rate for ReadReq accesses
system.cpu.dcache.ReadReq_avg_mshr_miss_latency::.cpu.data 76350.789096                       # average ReadReq mshr miss latency
system.cpu.dcache.ReadReq_avg_mshr_miss_latency::total 76350.789096                       # average ReadReq mshr miss latency
system.cpu.dcache.ReadReq_avg_mshr_uncacheable_latency::.cpu.data 21753.029079                       # average ReadReq mshr uncacheable latency
system.cpu.dcache.ReadReq_avg_mshr_uncacheable_latency::total 21753.029079                       # average ReadReq mshr uncacheable latency
system.cpu.dcache.WriteReq_hits::.cpu.data        89780                       # number of WriteReq hits
system.cpu.dcache.WriteReq_hits::total          89780                       # number of WriteReq hits
system.cpu.dcache.WriteReq_misses::.cpu.data          487                       # number of WriteReq misses
system.cpu.dcache.WriteReq_misses::total          487                       # number of WriteReq misses
system.cpu.dcache.WriteReq_miss_latency::.cpu.data     36485375                       # number of WriteReq miss cycles
system.cpu.dcache.WriteReq_miss_latency::total     36485375                       # number of WriteReq miss cycles
system.cpu.dcache.WriteReq_accesses::.cpu.data        90267                       # number of WriteReq accesses(hits+misses)
system.cpu.dcache.WriteReq_accesses::total        90267                       # number of WriteReq accesses(hits+misses)
system.cpu.dcache.WriteReq_miss_rate::.cpu.data     0.005395                       # miss rate for WriteReq accesses
system.cpu.dcache.WriteReq_miss_rate::total     0.005395                       # miss rate for WriteReq accesses
system.cpu.dcache.WriteReq_avg_miss_latency::.cpu.data 74918.634497                       # average WriteReq miss latency
system.cpu.dcache.WriteReq_avg_miss_latency::total 74918.634497                       # average WriteReq miss latency
system.cpu.dcache.WriteReq_mshr_hits::.cpu.data          235                       # number of WriteReq MSHR hits
system.cpu.dcache.WriteReq_mshr_hits::total          235                       # number of WriteReq MSHR hits
system.cpu.dcache.WriteReq_mshr_misses::.cpu.data          252                       # number of WriteReq MSHR misses
system.cpu.dcache.WriteReq_mshr_misses::total          252                       # number of WriteReq MSHR misses
system.cpu.dcache.WriteReq_mshr_uncacheable::.cpu.data         5765                       # number of WriteReq MSHR uncacheable
system.cpu.dcache.WriteReq_mshr_uncacheable::total         5765                       # number of WriteReq MSHR uncacheable
system.cpu.dcache.WriteReq_mshr_miss_latency::.cpu.data     18320000                       # number of WriteReq MSHR miss cycles
system.cpu.dcache.WriteReq_mshr_miss_latency::total     18320000                       # number of WriteReq MSHR miss cycles
system.cpu.dcache.WriteReq_mshr_miss_rate::.cpu.data     0.002792                       # mshr miss rate for WriteReq accesses
system.cpu.dcache.WriteReq_mshr_miss_rate::total     0.002792                       # mshr miss rate for WriteReq accesses
system.cpu.dcache.WriteReq_avg_mshr_miss_latency::.cpu.data 72698.412698                       # average WriteReq mshr miss latency
system.cpu.dcache.WriteReq_avg_mshr_miss_latency::total 72698.412698                       # average WriteReq mshr miss latency
system.cpu.dcache.CleanInvalidReq_mshr_misses::.cpu.data       342541                       # number of CleanInvalidReq MSHR misses
system.cpu.dcache.CleanInvalidReq_mshr_misses::total       342541                       # number of CleanInvalidReq MSHR misses
system.cpu.dcache.CleanInvalidReq_mshr_miss_latency::.cpu.data   3560548375                       # number of CleanInvalidReq MSHR miss cycles
system.cpu.dcache.CleanInvalidReq_mshr_miss_latency::total   3560548375                       # number of CleanInvalidReq MSHR miss cycles
system.cpu.dcache.CleanInvalidReq_mshr_miss_rate::.cpu.data          inf                       # mshr miss rate for CleanInvalidReq accesses
system.cpu.dcache.CleanInvalidReq_mshr_miss_rate::total          inf                       # mshr miss rate for CleanInvalidReq accesses
system.cpu.dcache.CleanInvalidReq_avg_mshr_miss_latency::.cpu.data 10394.517372                       # average CleanInvalidReq mshr miss latency
system.cpu.dcache.CleanInvalidReq_avg_mshr_miss_latency::total 10394.517372                       # average CleanInvalidReq mshr miss latency
system.cpu.dcache.InvalidateReq_mshr_hits::.cpu.data        90880                       # number of InvalidateReq MSHR hits
system.cpu.dcache.InvalidateReq_mshr_hits::total        90880                       # number of InvalidateReq MSHR hits
system.cpu.dcache.InvalidateReq_mshr_misses::.cpu.data       251661                       # number of InvalidateReq MSHR misses
system.cpu.dcache.InvalidateReq_mshr_misses::total       251661                       # number of InvalidateReq MSHR misses
system.cpu.dcache.InvalidateReq_mshr_miss_latency::.cpu.data   3460527257                       # number of InvalidateReq MSHR miss cycles
system.cpu.dcache.InvalidateReq_mshr_miss_latency::total   3460527257                       # number of InvalidateReq MSHR miss cycles
system.cpu.dcache.InvalidateReq_mshr_miss_rate::.cpu.data          inf                       # mshr miss rate for InvalidateReq accesses
system.cpu.dcache.InvalidateReq_mshr_miss_rate::total          inf                       # mshr miss rate for InvalidateReq accesses
system.cpu.dcache.InvalidateReq_avg_mshr_miss_latency::.cpu.data 13750.749051                       # average InvalidateReq mshr miss latency
system.cpu.dcache.InvalidateReq_avg_mshr_miss_latency::total 13750.749051                       # average InvalidateReq mshr miss latency
system.cpu.dcache.tags.pwrStateResidencyTicks::UNDEFINED  18954001250                       # Cumulative time (in ticks) in various power states
system.cpu.dcache.tags.tagsinuse           511.839700                       # Cycle average of tags in use
system.cpu.dcache.tags.total_refs              244691                       # Total number of references to valid blocks.
system.cpu.dcache.tags.sampled_refs              1461                       # Sample count of references to valid blocks.
system.cpu.dcache.tags.avg_refs            167.481862                       # Average number of references to valid blocks.
system.cpu.dcache.tags.warmup_cycle                 0                       # Cycle when the warmup percentage was hit.
system.cpu.dcache.tags.occ_blocks::.cpu.data   511.839700                       # Average occupied blocks per requestor
system.cpu.dcache.tags.occ_percent::.cpu.data     0.999687                       # Average percentage of cache occupancy
system.cpu.dcache.tags.occ_percent::total     0.999687                       # Average percentage of cache occupancy
system.cpu.dcache.tags.occ_task_id_blocks::1024          511                       # Occupied blocks per task id
system.cpu.dcache.tags.age_task_id_blocks_1024::0            2                       # Occupied blocks per task id
system.cpu.dcache.tags.age_task_id_blocks_1024::2           27                       # Occupied blocks per task id
system.cpu.dcache.tags.age_task_id_blocks_1024::3          405                       # Occupied blocks per task id
system.cpu.dcache.tags.age_task_id_blocks_1024::4           77                       # Occupied blocks per task id
system.cpu.dcache.tags.occ_task_id_percent::1024     0.998047                       # Percentage of cache occupancy per task id
system.cpu.dcache.tags.tag_accesses           3713021                       # Number of tag accesses
system.cpu.dcache.tags.data_accesses          3713021                       # Number of data accesses
system.cpu.itb.walker.pwrStateResidencyTicks::UNDEFINED  18954001250                       # Cumulative time (in ticks) in various power states
system.cpu.itb.stage2_mmu.stage2_tlb.walker.pwrStateResidencyTicks::UNDEFINED  18954001250                       # Cumulative time (in ticks) in various power states

---------- End Simulation Statistics   ----------
