gem5 Simulator System.  http://gem5.org
gem5 is copyrighted software; use the --copyright option for details.

gem5 compiled May 11 2023 13:12:28
gem5 started Jun  5 2023 19:08:31
gem5 executing on node4x10a.cs.rochester.edu, pid 33787
command line: /u/sgupta45/gem5-SALAM/build/ARM/gem5_bus.opt --debug-flags=HWACC,CommInterface,LLVMInterface,StreamDma,NoncoherentDma,TickTimer,SchedulerStats --outdir=BM_ARM_OUT/comb_4/canny_1_deblur_1_gru_1_harris_1_lstm_0_GEDF_D configs/SALAM/scheduler.py --mem-size=4GB --mem-type=LPDDR5_6400_1x16_BG_BL32 --kernel=/u/sgupta45/gem5-SALAM/benchmarks/scheduler/sw/bin_comb_4/canny_1_deblur_1_gru_1_harris_1_lstm_0_GEDF_D.elf --vans-config-path=/u/sgupta45/VANS/config --disk-image=/u/sgupta45/gem5-SALAM/baremetal/common/fake.iso --machine-type=VExpress_GEM5_V1 --dtb-file=none --bare-metal --cpu-type=ex5_LITTLE --cpu-clock=1.6GHz --accpath=/u/sgupta45/gem5-SALAM/benchmarks --caches --cacheline_size=64 --l1d_size=32kB --l1d_assoc=4 --l1i_size=32kB --l1i_assoc=2

info: Standard input is not a terminal, disabling listeners.
Global frequency set at 1000000000000 ticks per second
Cycle Counts Loaded!
Cycle Counts Loaded!
Cycle Counts Loaded!
Cycle Counts Loaded!
Cycle Counts Loaded!
Cycle Counts Loaded!
Cycle Counts Loaded!
Cycle Counts Loaded!
Cycle Counts Loaded!
Cycle Counts Loaded!
Cycle Counts Loaded!
**** REAL SIMULATION ****
3447045625: global: Timer #2 started at tick 3447045625
3447390625: global: Timer #2 stopped at tick 3447390625. Duration: 345000
3449813750: global: Timer #2 started at tick 3449813750
3450183750: global: Timer #2 stopped at tick 3450183750. Duration: 370000
3454056250: global: Timer #2 started at tick 3454056250
3454108750: global: Timer #2 stopped at tick 3454108750. Duration: 52500
3472251875: global: Timer #2 started at tick 3472251875
3472436875: global: Timer #2 stopped at tick 3472436875. Duration: 185000
3488364500: system.acctest.elem_matrix0_dma: SRC:0x0000000082290040, DST:0x0000000024000020, LEN:65536
3493189500: system.acctest.isp0_dma: SRC:0x0000000082018900, DST:0x0000000027000020, LEN:16900
3493598125: global: Number of accelerators running = 2
3498334500: system.acctest.isp0_dma: Transfer completed in 5.145 us
3498892500: global: Timer #0 started at tick 3498892500
3500744375: global: Timer #0 stopped at tick 3500744375. Duration: 1851875
3500763125: global: Number of accelerators running = 2
3502563500: system.acctest.elem_matrix0_dma: Transfer completed in 14.199 us
3502700000: global: Timer #0 started at tick 3502700000
3516997375: system.acctest.elem_matrix0_dma: SRC:0x000000008218fe80, DST:0x0000000024010020, LEN:65536
3517278125: global: Timer #0 stopped at tick 3517278125. Duration: 14578125
3517292500: global: Number of accelerators running = 2
3529186375: system.acctest.elem_matrix0_dma: Transfer completed in 12.189 us
3529260625: global: Timer #0 started at tick 3529260625
3530797500: global: Timer #0 stopped at tick 3530797500. Duration: 1536875
3530811875: global: Number of accelerators running = 2
********************************************************************************
system.acctest.isp0.compute
   ========= Performance Analysis =============
   Setup Time:                      0.151133seconds
   Simulation Time:                 397.244seconds
   System Clock:                    1GHz
   Transistor Latency:              1ns
   Runtime:                         34882 cycles
   Runtime:                         34.882 us
   Stalls:                          1 cycles
   Executed Nodes:                  34880 cycles

********************************************************************************
   ========= Performance Analysis =================
   Setup Time:                      1.51133e+08ns
   Simulation Time:                 3.97244e+11ns
   System Clock:                    1GHz
   Transistor Latency:              0ns
   Runtime:                         34882 cycles
   Runtime:                         3.4882e-06 seconds
   Stalls:                          1 cycles
       Load Only:                   0 cycles
       Store Only:                  1 cycles
       Compute Only:                0 cycles
       Compute & Store:             0 cycles
       Load & Store:                0 cycles
       Load & Compute:              0 cycles
       Load & Compute & Store:      0 cycles
   Executed Nodes:                  34880 cycles
       Load Only:                   0 cycles
       Store Only:                  1 cycles
       Compute Only:                3453 cycles
       Compute & Store:             19014 cycles
       Load & Store:                0 cycles
       Load & Compute:              2467 cycles
       Load & Compute & Store:      9945 cycles

   ========= Runtime FU's ========= (Max | Avg) ===
   Counter FU's:                      10 | 0.118075
   Integer Add/Sub FU's:              76 | 0.082082
   Integer Mul/Div FU's:              11 | 0.043888
   Integer Shifter FU's:              42 | 0.055974
   Integer Bitwise FU's:               4 | 0.059443
   Floating Point Float Add/Sub:      53 | 0.116839
   Floating Point Double Add/Sub:      0 | 0.000000
   Floating Point Float Mul/Div:      76 | 0.625626
   Floating Point Double Mul/Div:      0 | 0.000000
   0 Cycle Compare FU's:              85 | 0.664984
   GEP Instruction FU's:              33 | 0.117424
   Type Conversion FU's:             110 | 0.379700

   ========= Static FU's ==========================
   Counter FU's:                    0
   Integer Add/Sub FU's:            0
   Integer Mul/Div FU's:            0
   Integer Shifter FU's:            0
   Integer Bitwise FU's:            0
   Floating Point Float Add/Sub:    0
   Floating Point Double Add/Sub:   0
   Floating Point Float Mul/Div:    0
   Floating Point Double Mul/Div:   0
   0 Cycle Compare FU's:            0
   GEP Instruction FU's:            0
   Type Conversion FU's:            0
   Other:                           0

   ========= Pipeline Register Usage =============
   Total Number of Registers:       1620
   Max Register Usage Per Cycle:    151
   Avg Register Usage Per Cycle:    58.744711
   Avg Register Size (Bytes):       5.073357

   ========= Memory Configuration =================
   Cache Bus Ports:                 0
   Shared Cache Size:               0kB
   Local Bus Ports:                 0
   Private SPM Size:                112kB
   Private Read Ports:              0
   Private Write Ports:             0
   Private Read Bus Width:          64
   Private Write Bus Width:         64
       Memory Reads:                0
       Memory Writes:               0
   ========= Power Analysis ======================
   FU Leakage Power:                1.637787 mW 
   FU Dynamic Power:                9.655087 mW 
   FU Total Power:                  11.292874 mW 

   Registers Leakage Power:          0.021654 mW 
   Registers Dynamic Power:          3.085961 mW 
       Register Reads (Bits):        2049133
       Register Writes (Bits):       2049168
   Registers Total Power:            3.107615 mW

   SPM Leakage Power:               0.061081 mW
   SPM Read Dynamic Power:          11.103730 mW
   SPM Write Dynamic Power:         7.385230 mW
   SPM Total Power:                 18.550041 mW

   Cache Leakage Power:             0.000000 mW
   Cache Read Dynamic Power:        0.000000 mW
   Cache Write Dynamic Power:       0.000000 mW
   Cache Total Power:               0.000000 mW

   Accelerator Power:               14.400490 mW
   Accelerator Power (SPM):         32.950531 mW
   Accelerator Power (Cache):       14.400490 mW

   ========= Area Analysis =======================
   FU Area:                         176023.796875 um^2 (0.176024 mm^2)
   Register Area:                   1760.064941 um^2 (0.001760 mm^2)
   SPM Area:                        2165.394891 um^2 (0.002165 mm^2)
   Cache Area:                      0.000000 um^2 (0.000000 mm^2)

   Accelerator Area:                177783.859375 um^2 (0.177784 mm^2)
   Accelerator Area (SPM):          179949.254266 um^2 (0.179949 mm^2)
   Accelerator Area (Cache):        177783.859375 um^2 (0.177784 mm^2)

   ========= SPM Resizing  =======================
   SPM Optimized Leakage Power:     0.005964 mW
   SPM Opt Area:                    422.108128 um^2

3535116250: global: Timer #0 started at tick 3535116250
3535466875: global: Timer #2 started at tick 3535466875
3535727500: global: Timer #2 stopped at tick 3535727500. Duration: 260625
3536591250: global: DAG ID = 0
3536610625: global: Node ID = 0
3536628750: global: Node deadline difference = -13501
3536690000: global: Predicted memory time / byte = 0 us/byte
3536708125: global: Predicted memory time = 0 us
3536726250: global: Predicted memory time / byte = 0 us/byte
3536744375: global: Predicted memory time = 0 us
3536762500: global: Predicted memory time / byte = 0 us/byte
3536824375: global: Predicted memory time = 0 us
3536842500: global: Predicted memory time / byte = 0 us/byte
3536860625: global: Predicted memory time = 0 us
3538038750: system.acctest.grayscale0_dma: SRC:0x0000000027004224, DST:0x0000000025000020, LEN:49152
********************************************************************************
system.acctest.elem_matrix0.compute
   ========= Performance Analysis =============
   Setup Time:                      3.509403seconds
   Simulation Time:                 162.203625seconds
   System Clock:                    1.000000GHz
   Transistor Latency:              1ns
   Runtime:                         10932 cycles
   Runtime:                         10.932000 us
   Stalls:                          0 cycles
   Executed Nodes:                  10931 cycles

********************************************************************************
   ========= Performance Analysis =================
   Setup Time:                      3509402681.000000ns
   Simulation Time:                 162203625345.000000ns
   System Clock:                    1.000000GHz
   Transistor Latency:              0ns
   Runtime:                         10932 cycles
   Runtime:                         0.000001 seconds
   Stalls:                          0 cycles
       Load Only:                   0 cycles
       Store Only:                  0 cycles
       Compute Only:                0 cycles
       Compute & Store:             0 cycles
       Load & Store:                0 cycles
       Load & Compute:              0 cycles
       Load & Compute & Store:      0 cycles
   Executed Nodes:                  10931 cycles
       Load Only:                   0 cycles
       Store Only:                  5 cycles
       Compute Only:                1 cycles
       Compute & Store:             21 cycles
       Load & Store:                0 cycles
       Load & Compute:              7 cycles
       Load & Compute & Store:      10897 cycles

   ========= Runtime FU's ========= (Max | Avg) ===
   Counter FU's:                      32 | 0.046838
   Integer Add/Sub FU's:               0 | 0.000000
   Integer Mul/Div FU's:               0 | 0.000000
   Integer Shifter FU's:               0 | 0.000000
   Integer Bitwise FU's:               1 | 0.000091
   Floating Point Float Add/Sub:      34 | 0.044252
   Floating Point Double Add/Sub:      0 | 0.000000
   Floating Point Float Mul/Div:       0 | 0.000000
   Floating Point Double Mul/Div:      0 | 0.000000
   0 Cycle Compare FU's:             102 | 0.046974
   GEP Instruction FU's:              96 | 0.046835
   Type Conversion FU's:               7 | 0.006782

   ========= Static FU's ==========================
   Counter FU's:                    0
   Integer Add/Sub FU's:            0
   Integer Mul/Div FU's:            0
   Integer Shifter FU's:            0
   Integer Bitwise FU's:            0
   Floating Point Float Add/Sub:    0
   Floating Point Double Add/Sub:   0
   Floating Point Float Mul/Div:    0
   Floating Point Double Mul/Div:   0
   0 Cycle Compare FU's:            0
   GEP Instruction FU's:            0
   Type Conversion FU's:            0
   Other:                           0

   ========= Pipeline Register Usage =============
   Total Number of Registers:       5641
   Max Register Usage Per Cycle:    138
   Avg Register Usage Per Cycle:    12.130992
   Avg Register Size (Bytes):       5.980606

   ========= Memory Configuration =================
   Cache Bus Ports:                 0
   Shared Cache Size:               0kB
   Local Bus Ports:                 0
   Private SPM Size:                256kB
   Private Read Ports:              0
   Private Write Ports:             0
   Private Read Bus Width:          64
   Private Write Bus Width:         64
       Memory Reads:                0
       Memory Writes:               0
   ========= Power Analysis ======================
   FU Leakage Power:                0.519269 mW 
   FU Dynamic Power:                0.154621 mW 
   FU Total Power:                  0.673890 mW 

   Registers Leakage Power:          0.005281 mW 
   Registers Dynamic Power:          0.015326 mW 
       Register Reads (Bits):        132616
       Register Writes (Bits):       133658
   Registers Total Power:            0.020607 mW

   SPM Leakage Power:               0.104100 mW
   SPM Read Dynamic Power:          1.997266 mW
   SPM Write Dynamic Power:         0.953321 mW
   SPM Total Power:                 3.054688 mW

   Cache Leakage Power:             0.000000 mW
   Cache Read Dynamic Power:        0.000000 mW
   Cache Write Dynamic Power:       0.000000 mW
   Cache Total Power:               0.000000 mW

   Accelerator Power:               0.694497 mW
   Accelerator Power (SPM):         3.749184 mW
   Accelerator Power (Cache):       0.694497 mW

   ========= Area Analysis =======================
   FU Area:                         70212.562500 um^2 (0.070213 mm^2)
   Register Area:                   429.271088 um^2 (0.000429 mm^2)
   SPM Area:                        2177.365505 um^2 (0.002177 mm^2)
   Cache Area:                      0.000000 um^2 (0.000000 mm^2)

   Accelerator Area:                70641.835938 um^2 (0.070642 mm^2)
   Accelerator Area (SPM):          72819.201442 um^2 (0.072819 mm^2)
   Accelerator Area (Cache):        70641.835938 um^2 (0.070642 mm^2)

   ========= SPM Resizing  =======================
   SPM Optimized Leakage Power:     0.004248 mW
   SPM Opt Area:                    178.524902 um^2

3542668000: system.acctest.isp0_dma: SRC:0x000000008210dec0, DST:0x0000000027000020, LEN:16900
3542894375: global: Timer #0 stopped at tick 3542894375. Duration: 7778125
3542908750: global: Number of accelerators running = 3
3543021250: global: Timer #0 started at tick 3543021250
3543213750: global: Timer #2 started at tick 3543213750
3543258750: global: Timer #2 stopped at tick 3543258750. Duration: 45000
3543294375: global: Timer #2 started at tick 3543294375
3543938125: global: Timer #2 stopped at tick 3543938125. Duration: 643750
3546156000: system.acctest.isp0_dma: Transfer completed in 3.488 us
3547595750: system.acctest.grayscale0_dma: Transfer completed in 9.557 us
3557435875: system.acctest.elem_matrix0_dma: SRC:0x0000000024020020, DST:0x000000008219fe80, LEN:65536
3557944375: global: Timer #0 stopped at tick 3557944375. Duration: 14923125
3557958750: global: Number of accelerators running = 3
3558081875: global: Timer #0 started at tick 3558081875
3558983750: global: Timer #0 stopped at tick 3558983750. Duration: 901875
3558998125: global: Number of accelerators running = 3
3559124375: global: Timer #0 started at tick 3559124375
3560320625: global: Timer #0 stopped at tick 3560320625. Duration: 1196250
3560335000: global: Number of accelerators running = 3
3563722875: system.acctest.elem_matrix0_dma: Transfer completed in 6.287 us
3563806875: global: Timer #0 started at tick 3563806875
3564040000: global: DAG ID = 2
3564102500: global: Node ID = 0
3564174375: global: Node deadline difference = -2230
3564194375: global: Predicted memory time / byte = 0 us/byte
3564212500: global: Predicted memory time = 0 us
3564230625: global: Predicted memory time / byte = 0 us/byte
3564248750: global: Predicted memory time = 0 us
3564266875: global: Predicted memory time / byte = 0 us/byte
3564285000: global: Predicted memory time = 0 us
3564303125: global: Predicted memory time / byte = 0 us/byte
3564321250: global: Predicted memory time = 0 us
********************************************************************************
system.acctest.grayscale0.compute
   ========= Performance Analysis =============
   Setup Time:                      0.009089seconds
   Simulation Time:                 251.315085seconds
   System Clock:                    1.000000GHz
   Transistor Latency:              1ns
   Runtime:                         10263 cycles
   Runtime:                         10.263000 us
   Stalls:                          1 cycles
   Executed Nodes:                  10261 cycles

********************************************************************************
   ========= Performance Analysis =================
   Setup Time:                      9089190.000000ns
   Simulation Time:                 251315084845.000000ns
   System Clock:                    1.000000GHz
   Transistor Latency:              0ns
   Runtime:                         10263 cycles
   Runtime:                         0.000001 seconds
   Stalls:                          1 cycles
       Load Only:                   0 cycles
       Store Only:                  1 cycles
       Compute Only:                0 cycles
       Compute & Store:             0 cycles
       Load & Store:                0 cycles
       Load & Compute:              0 cycles
       Load & Compute & Store:      0 cycles
   Executed Nodes:                  10261 cycles
       Load Only:                   0 cycles
       Store Only:                  1 cycles
       Compute Only:                88 cycles
       Compute & Store:             344 cycles
       Load & Store:                0 cycles
       Load & Compute:              1981 cycles
       Load & Compute & Store:      7847 cycles

   ========= Runtime FU's ========= (Max | Avg) ===
   Counter FU's:                      24 | 0.199556
   Integer Add/Sub FU's:               0 | 0.000000
   Integer Mul/Div FU's:               8 | 0.199552
   Integer Shifter FU's:               0 | 0.000000
   Integer Bitwise FU's:               1 | 0.000097
   Floating Point Float Add/Sub:      49 | 0.114264
   Floating Point Double Add/Sub:      0 | 0.000000
   Floating Point Float Mul/Div:      42 | 0.114129
   Floating Point Double Mul/Div:      0 | 0.000000
   0 Cycle Compare FU's:               9 | 0.066626
   GEP Instruction FU's:              36 | 0.177452
   Type Conversion FU's:              76 | 0.401969

   ========= Static FU's ==========================
   Counter FU's:                    0
   Integer Add/Sub FU's:            0
   Integer Mul/Div FU's:            0
   Integer Shifter FU's:            0
   Integer Bitwise FU's:            0
   Floating Point Float Add/Sub:    0
   Floating Point Double Add/Sub:   0
   Floating Point Float Mul/Div:    0
   Floating Point Double Mul/Div:   0
   0 Cycle Compare FU's:            0
   GEP Instruction FU's:            0
   Type Conversion FU's:            0
   Other:                           0

   ========= Pipeline Register Usage =============
   Total Number of Registers:       235
   Max Register Usage Per Cycle:    90
   Avg Register Usage Per Cycle:    33.924291
   Avg Register Size (Bytes):       5.841147

   ========= Memory Configuration =================
   Cache Bus Ports:                 0
   Shared Cache Size:               0kB
   Local Bus Ports:                 0
   Private SPM Size:                176kB
   Private Read Ports:              0
   Private Write Ports:             0
   Private Read Bus Width:          64
   Private Write Bus Width:         64
       Memory Reads:                0
       Memory Writes:               0
   ========= Power Analysis ======================
   FU Leakage Power:                1.178269 mW 
   FU Dynamic Power:                0.617392 mW 
   FU Total Power:                  1.795662 mW 

   Registers Leakage Power:          0.014185 mW 
   Registers Dynamic Power:          0.101057 mW 
       Register Reads (Bits):        348165
       Register Writes (Bits):       348168
   Registers Total Power:            0.115242 mW

   SPM Leakage Power:               0.089881 mW
   SPM Read Dynamic Power:          6.997296 mW
   SPM Write Dynamic Power:         2.062375 mW
   SPM Total Power:                 9.149552 mW

   Cache Leakage Power:             0.000000 mW
   Cache Read Dynamic Power:        0.000000 mW
   Cache Write Dynamic Power:       0.000000 mW
   Cache Total Power:               0.000000 mW

   Accelerator Power:               1.910904 mW
   Accelerator Power (SPM):         11.060456 mW
   Accelerator Power (Cache):       1.910904 mW

   ========= Area Analysis =======================
   FU Area:                         143348.187500 um^2 (0.143348 mm^2)
   Register Area:                   1152.968140 um^2 (0.001153 mm^2)
   SPM Area:                        3573.642862 um^2 (0.003574 mm^2)
   Cache Area:                      0.000000 um^2 (0.000000 mm^2)

   Accelerator Area:                144501.156250 um^2 (0.144501 mm^2)
   Accelerator Area (SPM):          148074.799112 um^2 (0.148075 mm^2)
   Accelerator Area (Cache):        144501.156250 um^2 (0.144501 mm^2)

   ========= SPM Resizing  =======================
   SPM Optimized Leakage Power:     0.003633 mW
   SPM Opt Area:                    364.024374 um^2

3578421625: system.acctest.elem_matrix0_dma: SRC:0x000000008212fe80, DST:0x0000000024000020, LEN:65536
3578672500: global: Timer #0 stopped at tick 3578672500. Duration: 14865625
3578686875: global: Number of accelerators running = 3
3578803125: global: Timer #0 started at tick 3578803125
3579260000: global: Timer #2 started at tick 3579260000
3579310625: global: Timer #2 stopped at tick 3579310625. Duration: 50625
3579885000: global: DAG ID = 0
3579898750: global: Node ID = 1
3579918750: global: Node deadline difference = -13495
3579931250: global: Predicted memory time / byte = 0 us/byte
3579943750: global: Predicted memory time = 0 us
3579956250: global: Predicted memory time / byte = 0 us/byte
3579968750: global: Predicted memory time = 0 us
3579981250: global: Predicted memory time / byte = 0 us/byte
3579993750: global: Predicted memory time = 0 us
3580006250: global: Predicted memory time / byte = 0 us/byte
3580018750: global: Predicted memory time = 0 us
3581473000: system.acctest.convolution0_dma: SRC:0x000000002500c020, DST:0x0000000022000020, LEN:65536
3581874375: global: Timer #0 stopped at tick 3581874375. Duration: 3071250
3581888750: global: Number of accelerators running = 3
3590619625: system.acctest.elem_matrix0_dma: Transfer completed in 12.198 us
3590703750: global: Timer #0 started at tick 3590703750
3592285625: global: Timer #0 stopped at tick 3592285625. Duration: 1581875
3592300000: global: Number of accelerators running = 3
********************************************************************************
system.acctest.isp0.compute
   ========= Performance Analysis =============
   Setup Time:                      0.395351seconds
   Simulation Time:                 593.297796seconds
   System Clock:                    1.000000GHz
   Transistor Latency:              1ns
   Runtime:                         34882 cycles
   Runtime:                         34.882000 us
   Stalls:                          1 cycles
   Executed Nodes:                  34880 cycles

********************************************************************************
   ========= Performance Analysis =================
   Setup Time:                      395351261.000000ns
   Simulation Time:                 593297796324.000000ns
   System Clock:                    1.000000GHz
   Transistor Latency:              0ns
   Runtime:                         34882 cycles
   Runtime:                         0.000003 seconds
   Stalls:                          1 cycles
       Load Only:                   0 cycles
       Store Only:                  1 cycles
       Compute Only:                0 cycles
       Compute & Store:             0 cycles
       Load & Store:                0 cycles
       Load & Compute:              0 cycles
       Load & Compute & Store:      0 cycles
   Executed Nodes:                  34880 cycles
       Load Only:                   0 cycles
       Store Only:                  1 cycles
       Compute Only:                3453 cycles
       Compute & Store:             19014 cycles
       Load & Store:                0 cycles
       Load & Compute:              2467 cycles
       Load & Compute & Store:      9945 cycles

   ========= Runtime FU's ========= (Max | Avg) ===
   Counter FU's:                      10 | 0.118075
   Integer Add/Sub FU's:              76 | 0.082082
   Integer Mul/Div FU's:              11 | 0.043888
   Integer Shifter FU's:              42 | 0.055974
   Integer Bitwise FU's:               4 | 0.059443
   Floating Point Float Add/Sub:      53 | 0.116839
   Floating Point Double Add/Sub:      0 | 0.000000
   Floating Point Float Mul/Div:      76 | 0.625626
   Floating Point Double Mul/Div:      0 | 0.000000
   0 Cycle Compare FU's:              85 | 0.664984
   GEP Instruction FU's:              33 | 0.117424
   Type Conversion FU's:             110 | 0.379700

   ========= Static FU's ==========================
   Counter FU's:                    0
   Integer Add/Sub FU's:            0
   Integer Mul/Div FU's:            0
   Integer Shifter FU's:            0
   Integer Bitwise FU's:            0
   Floating Point Float Add/Sub:    0
   Floating Point Double Add/Sub:   0
   Floating Point Float Mul/Div:    0
   Floating Point Double Mul/Div:   0
   0 Cycle Compare FU's:            0
   GEP Instruction FU's:            0
   Type Conversion FU's:            0
   Other:                           0

   ========= Pipeline Register Usage =============
   Total Number of Registers:       1620
   Max Register Usage Per Cycle:    151
   Avg Register Usage Per Cycle:    58.744711
   Avg Register Size (Bytes):       5.073357

   ========= Memory Configuration =================
   Cache Bus Ports:                 0
   Shared Cache Size:               0kB
   Local Bus Ports:                 0
   Private SPM Size:                112kB
   Private Read Ports:              0
   Private Write Ports:             0
   Private Read Bus Width:          64
   Private Write Bus Width:         64
       Memory Reads:                0
       Memory Writes:               0
   ========= Power Analysis ======================
   FU Leakage Power:                1.637787 mW 
   FU Dynamic Power:                9.655087 mW 
   FU Total Power:                  11.292874 mW 

   Registers Leakage Power:          0.021654 mW 
   Registers Dynamic Power:          3.085961 mW 
       Register Reads (Bits):        2049133
       Register Writes (Bits):       2049168
   Registers Total Power:            3.107615 mW

   SPM Leakage Power:               0.061081 mW
   SPM Read Dynamic Power:          15.102444 mW
   SPM Write Dynamic Power:         10.618341 mW
   SPM Total Power:                 25.781867 mW

   Cache Leakage Power:             0.000000 mW
   Cache Read Dynamic Power:        0.000000 mW
   Cache Write Dynamic Power:       0.000000 mW
   Cache Total Power:               0.000000 mW

   Accelerator Power:               14.400490 mW
   Accelerator Power (SPM):         40.182357 mW
   Accelerator Power (Cache):       14.400490 mW

   ========= Area Analysis =======================
   FU Area:                         176023.796875 um^2 (0.176024 mm^2)
   Register Area:                   1760.064941 um^2 (0.001760 mm^2)
   SPM Area:                        2165.394891 um^2 (0.002165 mm^2)
   Cache Area:                      0.000000 um^2 (0.000000 mm^2)

   Accelerator Area:                177783.859375 um^2 (0.177784 mm^2)
   Accelerator Area (SPM):          179949.254266 um^2 (0.179949 mm^2)
   Accelerator Area (Cache):        177783.859375 um^2 (0.177784 mm^2)

   ========= SPM Resizing  =======================
   SPM Optimized Leakage Power:     0.005964 mW
   SPM Opt Area:                    422.108128 um^2

3593680000: global: Timer #0 started at tick 3593680000
3593998125: global: Timer #2 started at tick 3593998125
3594038125: global: Timer #2 stopped at tick 3594038125. Duration: 40000
3594338750: global: DAG ID = 1
3594352500: global: Node ID = 0
3594365625: global: Node deadline difference = -174
3594378125: global: Predicted memory time / byte = 0 us/byte
3594390625: global: Predicted memory time = 0 us
3594403125: global: Predicted memory time / byte = 0 us/byte
3594415625: global: Predicted memory time = 0 us
3594428125: global: Predicted memory time / byte = 0 us/byte
3594440625: global: Predicted memory time = 0 us
3594453125: global: Predicted memory time / byte = 0 us/byte
3594465625: global: Predicted memory time = 0 us
3595304000: system.acctest.grayscale0_dma: SRC:0x0000000027010224, DST:0x0000000025000020, LEN:49152
3595964000: system.acctest.convolution0_dma: Transfer completed in 14.491 us
3599552000: system.acctest.isp0_dma: SRC:0x00000000829aa840, DST:0x0000000027000020, LEN:16900
3599735625: global: Timer #0 stopped at tick 3599735625. Duration: 6055625
3599750000: global: Number of accelerators running = 4
3599876875: global: Timer #0 started at tick 3599876875
3601184000: system.acctest.convolution0_dma: SRC:0x0000000082038e40, DST:0x0000000022030020, LEN:100
3601322000: system.acctest.convolution0_dma: Transfer completed in 0.138 us
3601454375: global: Timer #0 stopped at tick 3601454375. Duration: 1577500
3601468750: global: Number of accelerators running = 4
3601580625: global: Timer #0 started at tick 3601580625
3602881000: system.acctest.isp0_dma: Transfer completed in 3.329 us
********************************************************************************
system.acctest.elem_matrix0.compute
   ========= Performance Analysis =============
   Setup Time:                      5.718827seconds
   Simulation Time:                 137.221437seconds
   System Clock:                    1.000000GHz
   Transistor Latency:              1ns
   Runtime:                         10932 cycles
   Runtime:                         10.932000 us
   Stalls:                          1 cycles
   Executed Nodes:                  10930 cycles

********************************************************************************
   ========= Performance Analysis =================
   Setup Time:                      5718826775.000000ns
   Simulation Time:                 137221436525.000000ns
   System Clock:                    1.000000GHz
   Transistor Latency:              0ns
   Runtime:                         10932 cycles
   Runtime:                         0.000001 seconds
   Stalls:                          1 cycles
       Load Only:                   0 cycles
       Store Only:                  1 cycles
       Compute Only:                0 cycles
       Compute & Store:             0 cycles
       Load & Store:                0 cycles
       Load & Compute:              0 cycles
       Load & Compute & Store:      0 cycles
   Executed Nodes:                  10930 cycles
       Load Only:                   0 cycles
       Store Only:                  4 cycles
       Compute Only:                1 cycles
       Compute & Store:             21 cycles
       Load & Store:                0 cycles
       Load & Compute:              6 cycles
       Load & Compute & Store:      10898 cycles

   ========= Runtime FU's ========= (Max | Avg) ===
   Counter FU's:                      32 | 0.046838
   Integer Add/Sub FU's:               0 | 0.000000
   Integer Mul/Div FU's:               0 | 0.000000
   Integer Shifter FU's:               0 | 0.000000
   Integer Bitwise FU's:               1 | 0.000091
   Floating Point Float Add/Sub:       0 | 0.000000
   Floating Point Double Add/Sub:      0 | 0.000000
   Floating Point Float Mul/Div:      34 | 0.044252
   Floating Point Double Mul/Div:      0 | 0.000000
   0 Cycle Compare FU's:             102 | 0.046945
   GEP Instruction FU's:              96 | 0.046835
   Type Conversion FU's:               7 | 0.006782

   ========= Static FU's ==========================
   Counter FU's:                    0
   Integer Add/Sub FU's:            0
   Integer Mul/Div FU's:            0
   Integer Shifter FU's:            0
   Integer Bitwise FU's:            0
   Floating Point Float Add/Sub:    0
   Floating Point Double Add/Sub:   0
   Floating Point Float Mul/Div:    0
   Floating Point Double Mul/Div:   0
   0 Cycle Compare FU's:            0
   GEP Instruction FU's:            0
   Type Conversion FU's:            0
   Other:                           0

   ========= Pipeline Register Usage =============
   Total Number of Registers:       5641
   Max Register Usage Per Cycle:    137
   Avg Register Usage Per Cycle:    12.130992
   Avg Register Size (Bytes):       5.980606

   ========= Memory Configuration =================
   Cache Bus Ports:                 0
   Shared Cache Size:               0kB
   Local Bus Ports:                 0
   Private SPM Size:                256kB
   Private Read Ports:              0
   Private Write Ports:             0
   Private Read Bus Width:          64
   Private Write Bus Width:         64
       Memory Reads:                0
       Memory Writes:               0
   ========= Power Analysis ======================
   FU Leakage Power:                0.045377 mW 
   FU Dynamic Power:                0.142576 mW 
   FU Total Power:                  0.187953 mW 

   Registers Leakage Power:          0.005281 mW 
   Registers Dynamic Power:          0.015326 mW 
       Register Reads (Bits):        132616
       Register Writes (Bits):       133658
   Registers Total Power:            0.020607 mW

   SPM Leakage Power:               0.104100 mW
   SPM Read Dynamic Power:          2.785289 mW
   SPM Write Dynamic Power:         2.044305 mW
   SPM Total Power:                 4.933694 mW

   Cache Leakage Power:             0.000000 mW
   Cache Read Dynamic Power:        0.000000 mW
   Cache Write Dynamic Power:       0.000000 mW
   Cache Total Power:               0.000000 mW

   Accelerator Power:               0.208559 mW
   Accelerator Power (SPM):         5.142254 mW
   Accelerator Power (Cache):       0.208559 mW

   ========= Area Analysis =======================
   FU Area:                         5472.068359 um^2 (0.005472 mm^2)
   Register Area:                   429.271088 um^2 (0.000429 mm^2)
   SPM Area:                        2177.365505 um^2 (0.002177 mm^2)
   Cache Area:                      0.000000 um^2 (0.000000 mm^2)

   Accelerator Area:                5901.339355 um^2 (0.005901 mm^2)
   Accelerator Area (SPM):          8078.704860 um^2 (0.008079 mm^2)
   Accelerator Area (Cache):        5901.339355 um^2 (0.005901 mm^2)

   ========= SPM Resizing  =======================
   SPM Optimized Leakage Power:     0.004248 mW
   SPM Opt Area:                    178.524902 um^2

3602991250: global: Timer #0 stopped at tick 3602991250. Duration: 1410625
3603005625: global: Number of accelerators running = 4
3603123750: global: Timer #0 started at tick 3603123750
3603936875: global: Timer #0 stopped at tick 3603936875. Duration: 813125
3603951250: global: Number of accelerators running = 4
3604068750: global: Timer #0 started at tick 3604068750
3604325000: global: Timer #2 started at tick 3604325000
3604400625: global: Timer #2 stopped at tick 3604400625. Duration: 75625
3605190000: system.acctest.grayscale0_dma: Transfer completed in 9.886 us
3617580875: system.acctest.elem_matrix0_dma: SRC:0x0000000024010020, DST:0x00000000821afe80, LEN:65536
3617946875: global: Timer #0 stopped at tick 3617946875. Duration: 13878125
3617961250: global: Number of accelerators running = 4
3618078125: global: Timer #0 started at tick 3618078125
3618785625: global: Timer #0 stopped at tick 3618785625. Duration: 707500
3618800000: global: Number of accelerators running = 4
3624059875: system.acctest.elem_matrix0_dma: Transfer completed in 6.479 us
3624143750: global: Timer #0 started at tick 3624143750
3624316250: global: DAG ID = 2
3624330000: global: Node ID = 1
3624349375: global: Node deadline difference = -2495
3624361875: global: Predicted memory time / byte = 0 us/byte
3624374375: global: Predicted memory time = 0 us
3624386875: global: Predicted memory time / byte = 0 us/byte
3624399375: global: Predicted memory time = 0 us
3624411875: global: Predicted memory time / byte = 0 us/byte
3624424375: global: Predicted memory time = 0 us
3624436875: global: Predicted memory time / byte = 0 us/byte
3624449375: global: Predicted memory time = 0 us
********************************************************************************
system.acctest.grayscale0.compute
   ========= Performance Analysis =============
   Setup Time:                      0.012713seconds
   Simulation Time:                 270.708622seconds
   System Clock:                    1.000000GHz
   Transistor Latency:              1ns
   Runtime:                         10263 cycles
   Runtime:                         10.263000 us
   Stalls:                          1 cycles
   Executed Nodes:                  10261 cycles

********************************************************************************
   ========= Performance Analysis =================
   Setup Time:                      12713011.000000ns
   Simulation Time:                 270708621836.000031ns
   System Clock:                    1.000000GHz
   Transistor Latency:              0ns
   Runtime:                         10263 cycles
   Runtime:                         0.000001 seconds
   Stalls:                          1 cycles
       Load Only:                   0 cycles
       Store Only:                  1 cycles
       Compute Only:                0 cycles
       Compute & Store:             0 cycles
       Load & Store:                0 cycles
       Load & Compute:              0 cycles
       Load & Compute & Store:      0 cycles
   Executed Nodes:                  10261 cycles
       Load Only:                   0 cycles
       Store Only:                  1 cycles
       Compute Only:                88 cycles
       Compute & Store:             344 cycles
       Load & Store:                0 cycles
       Load & Compute:              1981 cycles
       Load & Compute & Store:      7847 cycles

   ========= Runtime FU's ========= (Max | Avg) ===
   Counter FU's:                      24 | 0.199556
   Integer Add/Sub FU's:               0 | 0.000000
   Integer Mul/Div FU's:               8 | 0.199552
   Integer Shifter FU's:               0 | 0.000000
   Integer Bitwise FU's:               1 | 0.000097
   Floating Point Float Add/Sub:      49 | 0.114264
   Floating Point Double Add/Sub:      0 | 0.000000
   Floating Point Float Mul/Div:      42 | 0.114129
   Floating Point Double Mul/Div:      0 | 0.000000
   0 Cycle Compare FU's:               9 | 0.066626
   GEP Instruction FU's:              36 | 0.177452
   Type Conversion FU's:              76 | 0.401969

   ========= Static FU's ==========================
   Counter FU's:                    0
   Integer Add/Sub FU's:            0
   Integer Mul/Div FU's:            0
   Integer Shifter FU's:            0
   Integer Bitwise FU's:            0
   Floating Point Float Add/Sub:    0
   Floating Point Double Add/Sub:   0
   Floating Point Float Mul/Div:    0
   Floating Point Double Mul/Div:   0
   0 Cycle Compare FU's:            0
   GEP Instruction FU's:            0
   Type Conversion FU's:            0
   Other:                           0

   ========= Pipeline Register Usage =============
   Total Number of Registers:       235
   Max Register Usage Per Cycle:    90
   Avg Register Usage Per Cycle:    33.924291
   Avg Register Size (Bytes):       5.841147

   ========= Memory Configuration =================
   Cache Bus Ports:                 0
   Shared Cache Size:               0kB
   Local Bus Ports:                 0
   Private SPM Size:                176kB
   Private Read Ports:              0
   Private Write Ports:             0
   Private Read Bus Width:          64
   Private Write Bus Width:         64
       Memory Reads:                0
       Memory Writes:               0
   ========= Power Analysis ======================
   FU Leakage Power:                1.178269 mW 
   FU Dynamic Power:                0.617392 mW 
   FU Total Power:                  1.795662 mW 

   Registers Leakage Power:          0.014185 mW 
   Registers Dynamic Power:          0.101057 mW 
       Register Reads (Bits):        348165
       Register Writes (Bits):       348168
   Registers Total Power:            0.115242 mW

   SPM Leakage Power:               0.089881 mW
   SPM Read Dynamic Power:          10.232207 mW
   SPM Write Dynamic Power:         5.980668 mW
   SPM Total Power:                 16.302756 mW

   Cache Leakage Power:             0.000000 mW
   Cache Read Dynamic Power:        0.000000 mW
   Cache Write Dynamic Power:       0.000000 mW
   Cache Total Power:               0.000000 mW

   Accelerator Power:               1.910904 mW
   Accelerator Power (SPM):         18.213660 mW
   Accelerator Power (Cache):       1.910904 mW

   ========= Area Analysis =======================
   FU Area:                         143348.187500 um^2 (0.143348 mm^2)
   Register Area:                   1152.968140 um^2 (0.001153 mm^2)
   SPM Area:                        3573.642862 um^2 (0.003574 mm^2)
   Cache Area:                      0.000000 um^2 (0.000000 mm^2)

   Accelerator Area:                144501.156250 um^2 (0.144501 mm^2)
   Accelerator Area (SPM):          148074.799112 um^2 (0.148075 mm^2)
   Accelerator Area (Cache):        144501.156250 um^2 (0.144501 mm^2)

   ========= SPM Resizing  =======================
   SPM Optimized Leakage Power:     0.003633 mW
   SPM Opt Area:                    364.024374 um^2

3638022375: system.acctest.elem_matrix0_dma: SRC:0x000000008219fe80, DST:0x0000000024000020, LEN:65536
3638226875: global: Timer #0 stopped at tick 3638226875. Duration: 14083125
3638241250: global: Number of accelerators running = 4
3638358750: global: Timer #0 started at tick 3638358750
3638530000: global: Timer #2 started at tick 3638530000
3638568125: global: Timer #2 stopped at tick 3638568125. Duration: 38125
********************************************************************************
system.acctest.isp0.compute
   ========= Performance Analysis =============
   Setup Time:                      0.405122seconds
   Simulation Time:                 615.105896seconds
   System Clock:                    1.000000GHz
   Transistor Latency:              1ns
   Runtime:                         34882 cycles
   Runtime:                         34.882000 us
   Stalls:                          1 cycles
   Executed Nodes:                  34880 cycles

********************************************************************************
   ========= Performance Analysis =================
   Setup Time:                      405121612.000000ns
   Simulation Time:                 615105895583.000000ns
   System Clock:                    1.000000GHz
   Transistor Latency:              0ns
   Runtime:                         34882 cycles
   Runtime:                         0.000003 seconds
   Stalls:                          1 cycles
       Load Only:                   0 cycles
       Store Only:                  1 cycles
       Compute Only:                0 cycles
       Compute & Store:             0 cycles
       Load & Store:                0 cycles
       Load & Compute:              0 cycles
       Load & Compute & Store:      0 cycles
   Executed Nodes:                  34880 cycles
       Load Only:                   0 cycles
       Store Only:                  1 cycles
       Compute Only:                3481 cycles
       Compute & Store:             18975 cycles
       Load & Store:                0 cycles
       Load & Compute:              2469 cycles
       Load & Compute & Store:      9954 cycles

   ========= Runtime FU's ========= (Max | Avg) ===
   Counter FU's:                      10 | 0.118075
   Integer Add/Sub FU's:              68 | 0.091700
   Integer Mul/Div FU's:              11 | 0.043888
   Integer Shifter FU's:              45 | 0.052265
   Integer Bitwise FU's:               4 | 0.059443
   Floating Point Float Add/Sub:      50 | 0.123403
   Floating Point Double Add/Sub:      0 | 0.000000
   Floating Point Float Mul/Div:      76 | 0.624712
   Floating Point Double Mul/Div:      0 | 0.000000
   0 Cycle Compare FU's:              89 | 0.635003
   GEP Instruction FU's:              33 | 0.117424
   Type Conversion FU's:             111 | 0.376619

   ========= Static FU's ==========================
   Counter FU's:                    0
   Integer Add/Sub FU's:            0
   Integer Mul/Div FU's:            0
   Integer Shifter FU's:            0
   Integer Bitwise FU's:            0
   Floating Point Float Add/Sub:    0
   Floating Point Double Add/Sub:   0
   Floating Point Float Mul/Div:    0
   Floating Point Double Mul/Div:   0
   0 Cycle Compare FU's:            0
   GEP Instruction FU's:            0
   Type Conversion FU's:            0
   Other:                           0

   ========= Pipeline Register Usage =============
   Total Number of Registers:       1620
   Max Register Usage Per Cycle:    150
   Avg Register Usage Per Cycle:    58.744711
   Avg Register Size (Bytes):       5.073357

   ========= Memory Configuration =================
   Cache Bus Ports:                 0
   Shared Cache Size:               0kB
   Local Bus Ports:                 0
   Private SPM Size:                112kB
   Private Read Ports:              0
   Private Write Ports:             0
   Private Read Bus Width:          64
   Private Write Bus Width:         64
       Memory Reads:                0
       Memory Writes:               0
   ========= Power Analysis ======================
   FU Leakage Power:                1.578062 mW 
   FU Dynamic Power:                9.638273 mW 
   FU Total Power:                  11.216335 mW 

   Registers Leakage Power:          0.021654 mW 
   Registers Dynamic Power:          3.085961 mW 
       Register Reads (Bits):        2049133
       Register Writes (Bits):       2049168
   Registers Total Power:            3.107615 mW

   SPM Leakage Power:               0.061081 mW
   SPM Read Dynamic Power:          18.884297 mW
   SPM Write Dynamic Power:         13.423581 mW
   SPM Total Power:                 32.368959 mW

   Cache Leakage Power:             0.000000 mW
   Cache Read Dynamic Power:        0.000000 mW
   Cache Write Dynamic Power:       0.000000 mW
   Cache Total Power:               0.000000 mW

   Accelerator Power:               14.323951 mW
   Accelerator Power (SPM):         46.692910 mW
   Accelerator Power (Cache):       14.323951 mW

   ========= Area Analysis =======================
   FU Area:                         170581.953125 um^2 (0.170582 mm^2)
   Register Area:                   1760.064941 um^2 (0.001760 mm^2)
   SPM Area:                        2165.394891 um^2 (0.002165 mm^2)
   Cache Area:                      0.000000 um^2 (0.000000 mm^2)

   Accelerator Area:                172342.015625 um^2 (0.172342 mm^2)
   Accelerator Area (SPM):          174507.410516 um^2 (0.174507 mm^2)
   Accelerator Area (Cache):        172342.015625 um^2 (0.172342 mm^2)

   ========= SPM Resizing  =======================
   SPM Optimized Leakage Power:     0.005889 mW
   SPM Opt Area:                    420.258807 um^2

3650010375: system.acctest.elem_matrix0_dma: Transfer completed in 11.988 us
3652280875: system.acctest.grayscale0_dma: SRC:0x000000002500c020, DST:0x000000008211e280, LEN:65536
3652677500: global: Timer #0 stopped at tick 3652677500. Duration: 14318750
3652691875: global: Number of accelerators running = 4
3652808750: global: Timer #0 started at tick 3652808750
3653403125: global: Timer #2 started at tick 3653403125
3653443125: global: Timer #2 stopped at tick 3653443125. Duration: 40000
3659107875: system.acctest.grayscale0_dma: Transfer completed in 6.827 us
3664000875: system.acctest.isp0_dma: SRC:0x0000000027004224, DST:0x00000000829aea80, LEN:49152
3664400625: global: Timer #0 stopped at tick 3664400625. Duration: 11591875
3664415000: global: Number of accelerators running = 4
3664533125: global: Timer #0 started at tick 3664533125
3669470875: system.acctest.isp0_dma: Transfer completed in 5.47 us
3678480875: system.acctest.elem_matrix0_dma: SRC:0x000000008214fe80, DST:0x0000000024010020, LEN:65536
3678720625: global: Timer #0 stopped at tick 3678720625. Duration: 14187500
3678735000: global: Number of accelerators running = 4
3678853125: global: Timer #0 started at tick 3678853125
3679029375: global: DAG ID = 1
3679043125: global: Node ID = 1
3679062500: global: Node deadline difference = -126
3679075000: global: Predicted memory time / byte = 0 us/byte
3679087500: global: Predicted memory time = 0 us
3679100000: global: Predicted memory time / byte = 0 us/byte
3679112500: global: Predicted memory time = 0 us
3679125000: global: Predicted memory time / byte = 0 us/byte
3679137500: global: Predicted memory time = 0 us
3679150000: global: Predicted memory time / byte = 0 us/byte
3679162500: global: Predicted memory time = 0 us
3689473000: system.acctest.grayscale0_dma: SRC:0x00000000829aea80, DST:0x0000000025000020, LEN:49152
3689686875: global: Timer #0 stopped at tick 3689686875. Duration: 10833750
3689701250: global: Number of accelerators running = 4
3689818125: global: Timer #0 started at tick 3689818125
3689998750: global: DAG ID = 3
3690012500: global: Node ID = 0
3690031875: global: Node deadline difference = -13810
3690044375: global: Predicted memory time / byte = 0 us/byte
3690056875: global: Predicted memory time = 0 us
3690069375: global: Predicted memory time / byte = 0 us/byte
3690081875: global: Predicted memory time = 0 us
3690094375: global: Predicted memory time / byte = 0 us/byte
3690106875: global: Predicted memory time = 0 us
3690119375: global: Predicted memory time / byte = 0 us/byte
3690131875: global: Predicted memory time = 0 us
3690273125: global: Timer #0 stopped at tick 3690273125. Duration: 455000
3690287500: global: Number of accelerators running = 3
3691678875: system.acctest.elem_matrix0_dma: Transfer completed in 13.198 us
3691763750: global: Timer #0 started at tick 3691763750
3693168125: global: Timer #0 stopped at tick 3693168125. Duration: 1404375
3693182500: global: Number of accelerators running = 3
3699516000: system.acctest.grayscale0_dma: Transfer completed in 10.043 us
3699608125: global: Timer #0 started at tick 3699608125
3700306875: global: Timer #0 stopped at tick 3700306875. Duration: 698750
3700321250: global: Number of accelerators running = 3
********************************************************************************
system.acctest.elem_matrix0.compute
   ========= Performance Analysis =============
   Setup Time:                      5.267878seconds
   Simulation Time:                 138.826670seconds
   System Clock:                    1.000000GHz
   Transistor Latency:              1ns
   Runtime:                         10932 cycles
   Runtime:                         10.932000 us
   Stalls:                          1 cycles
   Executed Nodes:                  10930 cycles

********************************************************************************
   ========= Performance Analysis =================
   Setup Time:                      5267877871.000000ns
   Simulation Time:                 138826670076.000000ns
   System Clock:                    1.000000GHz
   Transistor Latency:              0ns
   Runtime:                         10932 cycles
   Runtime:                         0.000001 seconds
   Stalls:                          1 cycles
       Load Only:                   0 cycles
       Store Only:                  1 cycles
       Compute Only:                0 cycles
       Compute & Store:             0 cycles
       Load & Store:                0 cycles
       Load & Compute:              0 cycles
       Load & Compute & Store:      0 cycles
   Executed Nodes:                  10930 cycles
       Load Only:                   0 cycles
       Store Only:                  4 cycles
       Compute Only:                1 cycles
       Compute & Store:             21 cycles
       Load & Store:                0 cycles
       Load & Compute:              6 cycles
       Load & Compute & Store:      10898 cycles

   ========= Runtime FU's ========= (Max | Avg) ===
   Counter FU's:                      32 | 0.046838
   Integer Add/Sub FU's:               0 | 0.000000
   Integer Mul/Div FU's:               0 | 0.000000
   Integer Shifter FU's:               0 | 0.000000
   Integer Bitwise FU's:               1 | 0.000091
   Floating Point Float Add/Sub:       0 | 0.000000
   Floating Point Double Add/Sub:      0 | 0.000000
   Floating Point Float Mul/Div:      34 | 0.044252
   Floating Point Double Mul/Div:      0 | 0.000000
   0 Cycle Compare FU's:             102 | 0.046945
   GEP Instruction FU's:              96 | 0.046835
   Type Conversion FU's:               7 | 0.006782

   ========= Static FU's ==========================
   Counter FU's:                    0
   Integer Add/Sub FU's:            0
   Integer Mul/Div FU's:            0
   Integer Shifter FU's:            0
   Integer Bitwise FU's:            0
   Floating Point Float Add/Sub:    0
   Floating Point Double Add/Sub:   0
   Floating Point Float Mul/Div:    0
   Floating Point Double Mul/Div:   0
   0 Cycle Compare FU's:            0
   GEP Instruction FU's:            0
   Type Conversion FU's:            0
   Other:                           0

   ========= Pipeline Register Usage =============
   Total Number of Registers:       5641
   Max Register Usage Per Cycle:    137
   Avg Register Usage Per Cycle:    12.130992
   Avg Register Size (Bytes):       5.980606

   ========= Memory Configuration =================
   Cache Bus Ports:                 0
   Shared Cache Size:               0kB
   Local Bus Ports:                 0
   Private SPM Size:                256kB
   Private Read Ports:              0
   Private Write Ports:             0
   Private Read Bus Width:          64
   Private Write Bus Width:         64
       Memory Reads:                0
       Memory Writes:               0
   ========= Power Analysis ======================
   FU Leakage Power:                0.045377 mW 
   FU Dynamic Power:                0.142576 mW 
   FU Total Power:                  0.187953 mW 

   Registers Leakage Power:          0.005281 mW 
   Registers Dynamic Power:          0.015326 mW 
       Register Reads (Bits):        132616
       Register Writes (Bits):       133658
   Registers Total Power:            0.020607 mW

   SPM Leakage Power:               0.104100 mW
   SPM Read Dynamic Power:          3.776796 mW
   SPM Write Dynamic Power:         2.457440 mW
   SPM Total Power:                 6.338336 mW

   Cache Leakage Power:             0.000000 mW
   Cache Read Dynamic Power:        0.000000 mW
   Cache Write Dynamic Power:       0.000000 mW
   Cache Total Power:               0.000000 mW

   Accelerator Power:               0.208559 mW
   Accelerator Power (SPM):         6.546896 mW
   Accelerator Power (Cache):       0.208559 mW

   ========= Area Analysis =======================
   FU Area:                         5472.068359 um^2 (0.005472 mm^2)
   Register Area:                   429.271088 um^2 (0.000429 mm^2)
   SPM Area:                        2177.365505 um^2 (0.002177 mm^2)
   Cache Area:                      0.000000 um^2 (0.000000 mm^2)

   Accelerator Area:                5901.339355 um^2 (0.005901 mm^2)
   Accelerator Area (SPM):          8078.704860 um^2 (0.008079 mm^2)
   Accelerator Area (Cache):        5901.339355 um^2 (0.005901 mm^2)

   ========= SPM Resizing  =======================
   SPM Optimized Leakage Power:     0.004248 mW
   SPM Opt Area:                    178.524902 um^2

3703945000: global: Timer #0 started at tick 3703945000
3704198750: global: Timer #2 started at tick 3704198750
3704269375: global: Timer #2 stopped at tick 3704269375. Duration: 70625
********************************************************************************
system.acctest.grayscale0.compute
   ========= Performance Analysis =============
   Setup Time:                      0.006417seconds
   Simulation Time:                 139.757758seconds
   System Clock:                    1.000000GHz
   Transistor Latency:              1ns
   Runtime:                         10263 cycles
   Runtime:                         10.263000 us
   Stalls:                          1 cycles
   Executed Nodes:                  10261 cycles

********************************************************************************
   ========= Performance Analysis =================
   Setup Time:                      6417215.000000ns
   Simulation Time:                 139757757782.000000ns
   System Clock:                    1.000000GHz
   Transistor Latency:              0ns
   Runtime:                         10263 cycles
   Runtime:                         0.000001 seconds
   Stalls:                          1 cycles
       Load Only:                   0 cycles
       Store Only:                  1 cycles
       Compute Only:                0 cycles
       Compute & Store:             0 cycles
       Load & Store:                0 cycles
       Load & Compute:              0 cycles
       Load & Compute & Store:      0 cycles
   Executed Nodes:                  10261 cycles
       Load Only:                   0 cycles
       Store Only:                  1 cycles
       Compute Only:                88 cycles
       Compute & Store:             344 cycles
       Load & Store:                0 cycles
       Load & Compute:              1981 cycles
       Load & Compute & Store:      7847 cycles

   ========= Runtime FU's ========= (Max | Avg) ===
   Counter FU's:                      24 | 0.199556
   Integer Add/Sub FU's:               0 | 0.000000
   Integer Mul/Div FU's:               8 | 0.199552
   Integer Shifter FU's:               0 | 0.000000
   Integer Bitwise FU's:               1 | 0.000097
   Floating Point Float Add/Sub:      49 | 0.114264
   Floating Point Double Add/Sub:      0 | 0.000000
   Floating Point Float Mul/Div:      42 | 0.114129
   Floating Point Double Mul/Div:      0 | 0.000000
   0 Cycle Compare FU's:               9 | 0.066626
   GEP Instruction FU's:              36 | 0.177452
   Type Conversion FU's:              76 | 0.401969

   ========= Static FU's ==========================
   Counter FU's:                    0
   Integer Add/Sub FU's:            0
   Integer Mul/Div FU's:            0
   Integer Shifter FU's:            0
   Integer Bitwise FU's:            0
   Floating Point Float Add/Sub:    0
   Floating Point Double Add/Sub:   0
   Floating Point Float Mul/Div:    0
   Floating Point Double Mul/Div:   0
   0 Cycle Compare FU's:            0
   GEP Instruction FU's:            0
   Type Conversion FU's:            0
   Other:                           0

   ========= Pipeline Register Usage =============
   Total Number of Registers:       235
   Max Register Usage Per Cycle:    90
   Avg Register Usage Per Cycle:    33.924291
   Avg Register Size (Bytes):       5.841147

   ========= Memory Configuration =================
   Cache Bus Ports:                 0
   Shared Cache Size:               0kB
   Local Bus Ports:                 0
   Private SPM Size:                176kB
   Private Read Ports:              0
   Private Write Ports:             0
   Private Read Bus Width:          64
   Private Write Bus Width:         64
       Memory Reads:                0
       Memory Writes:               0
   ========= Power Analysis ======================
   FU Leakage Power:                1.178269 mW 
   FU Dynamic Power:                0.617392 mW 
   FU Total Power:                  1.795662 mW 

   Registers Leakage Power:          0.014185 mW 
   Registers Dynamic Power:          0.101057 mW 
       Register Reads (Bits):        348165
       Register Writes (Bits):       348168
   Registers Total Power:            0.115242 mW

   SPM Leakage Power:               0.089881 mW
   SPM Read Dynamic Power:          12.841663 mW
   SPM Write Dynamic Power:         7.385230 mW
   SPM Total Power:                 20.316774 mW

   Cache Leakage Power:             0.000000 mW
   Cache Read Dynamic Power:        0.000000 mW
   Cache Write Dynamic Power:       0.000000 mW
   Cache Total Power:               0.000000 mW

   Accelerator Power:               1.910904 mW
   Accelerator Power (SPM):         22.227678 mW
   Accelerator Power (Cache):       1.910904 mW

   ========= Area Analysis =======================
   FU Area:                         143348.187500 um^2 (0.143348 mm^2)
   Register Area:                   1152.968140 um^2 (0.001153 mm^2)
   SPM Area:                        3573.642862 um^2 (0.003574 mm^2)
   Cache Area:                      0.000000 um^2 (0.000000 mm^2)

   Accelerator Area:                144501.156250 um^2 (0.144501 mm^2)
   Accelerator Area (SPM):          148074.799112 um^2 (0.148075 mm^2)
   Accelerator Area (Cache):        144501.156250 um^2 (0.144501 mm^2)

   ========= SPM Resizing  =======================
   SPM Optimized Leakage Power:     0.003633 mW
   SPM Opt Area:                    364.024374 um^2

3717470875: system.acctest.elem_matrix0_dma: SRC:0x0000000024020020, DST:0x00000000821efe80, LEN:65536
3717828750: global: Timer #0 stopped at tick 3717828750. Duration: 13883750
3717843125: global: Number of accelerators running = 3
3717961250: global: Timer #0 started at tick 3717961250
3718146250: global: Timer #2 started at tick 3718146250
3718473125: global: Timer #2 stopped at tick 3718473125. Duration: 326875
3718508750: global: Timer #2 started at tick 3718508750
3718571875: global: Timer #2 stopped at tick 3718571875. Duration: 63125
3724142875: system.acctest.elem_matrix0_dma: Transfer completed in 6.672 us
3732131625: system.acctest.grayscale0_dma: SRC:0x000000002500c020, DST:0x00000000829bac00, LEN:65536
3732476875: global: Timer #0 stopped at tick 3732476875. Duration: 14515625
3732491250: global: Number of accelerators running = 3
3732608750: global: Timer #0 started at tick 3732608750
3732788750: global: DAG ID = 2
3732802500: global: Node ID = 5
3732821875: global: Node deadline difference = -2119
3732834375: global: Predicted memory time / byte = 0 us/byte
3732846875: global: Predicted memory time = 0 us
3732859375: global: Predicted memory time / byte = 0 us/byte
3732871875: global: Predicted memory time = 0 us
3732884375: global: Predicted memory time / byte = 0 us/byte
3732896875: global: Predicted memory time = 0 us
3732909375: global: Predicted memory time / byte = 0 us/byte
3732921875: global: Predicted memory time = 0 us
3738898625: system.acctest.grayscale0_dma: Transfer completed in 6.767 us
3746778750: system.acctest.elem_matrix0_dma: SRC:0x00000000821afe80, DST:0x0000000024000020, LEN:65536
3746988125: global: Timer #0 stopped at tick 3746988125. Duration: 14379375
3747002500: global: Number of accelerators running = 3
3747121250: global: Timer #0 started at tick 3747121250
3747295625: global: DAG ID = 3
3747309375: global: Node ID = 1
3747328750: global: Node deadline difference = -13789
3747341250: global: Predicted memory time / byte = 0 us/byte
3747353750: global: Predicted memory time = 0 us
3747366250: global: Predicted memory time / byte = 0 us/byte
3747378750: global: Predicted memory time = 0 us
3747391250: global: Predicted memory time / byte = 0 us/byte
3747403750: global: Predicted memory time = 0 us
3747416250: global: Predicted memory time / byte = 0 us/byte
3747428750: global: Predicted memory time = 0 us
3747529375: global: Timer #0 stopped at tick 3747529375. Duration: 408125
3747543750: global: Number of accelerators running = 2
3758750750: system.acctest.elem_matrix0_dma: Transfer completed in 11.972 us
3758836250: global: Timer #0 started at tick 3758836250
3772211625: system.acctest.elem_matrix0_dma: SRC:0x000000008213fe80, DST:0x0000000024010020, LEN:65536
3772433125: global: Timer #0 stopped at tick 3772433125. Duration: 13596875
3772447500: global: Number of accelerators running = 2
3784207625: system.acctest.elem_matrix0_dma: Transfer completed in 11.996 us
3784282500: global: Timer #0 started at tick 3784282500
3785637500: global: Timer #0 stopped at tick 3785637500. Duration: 1355000
3785651875: global: Number of accelerators running = 2
********************************************************************************
system.acctest.elem_matrix0.compute
   ========= Performance Analysis =============
   Setup Time:                      4.972042seconds
   Simulation Time:                 93.655755seconds
   System Clock:                    1.000000GHz
   Transistor Latency:              1ns
   Runtime:                         10932 cycles
   Runtime:                         10.932000 us
   Stalls:                          0 cycles
   Executed Nodes:                  10931 cycles

********************************************************************************
   ========= Performance Analysis =================
   Setup Time:                      4972042239.000000ns
   Simulation Time:                 93655754679.000000ns
   System Clock:                    1.000000GHz
   Transistor Latency:              0ns
   Runtime:                         10932 cycles
   Runtime:                         0.000001 seconds
   Stalls:                          0 cycles
       Load Only:                   0 cycles
       Store Only:                  0 cycles
       Compute Only:                0 cycles
       Compute & Store:             0 cycles
       Load & Store:                0 cycles
       Load & Compute:              0 cycles
       Load & Compute & Store:      0 cycles
   Executed Nodes:                  10931 cycles
       Load Only:                   0 cycles
       Store Only:                  5 cycles
       Compute Only:                1 cycles
       Compute & Store:             21 cycles
       Load & Store:                0 cycles
       Load & Compute:              7 cycles
       Load & Compute & Store:      10897 cycles

   ========= Runtime FU's ========= (Max | Avg) ===
   Counter FU's:                      32 | 0.046838
   Integer Add/Sub FU's:               0 | 0.000000
   Integer Mul/Div FU's:               0 | 0.000000
   Integer Shifter FU's:               0 | 0.000000
   Integer Bitwise FU's:               1 | 0.000091
   Floating Point Float Add/Sub:      34 | 0.044252
   Floating Point Double Add/Sub:      0 | 0.000000
   Floating Point Float Mul/Div:       0 | 0.000000
   Floating Point Double Mul/Div:      0 | 0.000000
   0 Cycle Compare FU's:             102 | 0.046974
   GEP Instruction FU's:              96 | 0.046835
   Type Conversion FU's:               7 | 0.006782

   ========= Static FU's ==========================
   Counter FU's:                    0
   Integer Add/Sub FU's:            0
   Integer Mul/Div FU's:            0
   Integer Shifter FU's:            0
   Integer Bitwise FU's:            0
   Floating Point Float Add/Sub:    0
   Floating Point Double Add/Sub:   0
   Floating Point Float Mul/Div:    0
   Floating Point Double Mul/Div:   0
   0 Cycle Compare FU's:            0
   GEP Instruction FU's:            0
   Type Conversion FU's:            0
   Other:                           0

   ========= Pipeline Register Usage =============
   Total Number of Registers:       5641
   Max Register Usage Per Cycle:    138
   Avg Register Usage Per Cycle:    12.130992
   Avg Register Size (Bytes):       5.980606

   ========= Memory Configuration =================
   Cache Bus Ports:                 0
   Shared Cache Size:               0kB
   Local Bus Ports:                 0
   Private SPM Size:                256kB
   Private Read Ports:              0
   Private Write Ports:             0
   Private Read Bus Width:          64
   Private Write Bus Width:         64
       Memory Reads:                0
       Memory Writes:               0
   ========= Power Analysis ======================
   FU Leakage Power:                0.519269 mW 
   FU Dynamic Power:                0.154621 mW 
   FU Total Power:                  0.673890 mW 

   Registers Leakage Power:          0.005281 mW 
   Registers Dynamic Power:          0.015326 mW 
       Register Reads (Bits):        132616
       Register Writes (Bits):       133658
   Registers Total Power:            0.020607 mW

   SPM Leakage Power:               0.104100 mW
   SPM Read Dynamic Power:          4.579344 mW
   SPM Write Dynamic Power:         2.880682 mW
   SPM Total Power:                 7.564127 mW

   Cache Leakage Power:             0.000000 mW
   Cache Read Dynamic Power:        0.000000 mW
   Cache Write Dynamic Power:       0.000000 mW
   Cache Total Power:               0.000000 mW

   Accelerator Power:               0.694497 mW
   Accelerator Power (SPM):         8.258624 mW
   Accelerator Power (Cache):       0.694497 mW

   ========= Area Analysis =======================
   FU Area:                         70212.562500 um^2 (0.070213 mm^2)
   Register Area:                   429.271088 um^2 (0.000429 mm^2)
   SPM Area:                        2177.365505 um^2 (0.002177 mm^2)
   Cache Area:                      0.000000 um^2 (0.000000 mm^2)

   Accelerator Area:                70641.835938 um^2 (0.070642 mm^2)
   Accelerator Area (SPM):          72819.201442 um^2 (0.072819 mm^2)
   Accelerator Area (Cache):        70641.835938 um^2 (0.070642 mm^2)

   ========= SPM Resizing  =======================
   SPM Optimized Leakage Power:     0.004248 mW
   SPM Opt Area:                    178.524902 um^2

3796427500: global: Timer #0 started at tick 3796427500
3796596250: global: Timer #2 started at tick 3796596250
3796902500: global: Timer #2 stopped at tick 3796902500. Duration: 306250
3810103750: system.acctest.elem_matrix0_dma: SRC:0x0000000024020020, DST:0x00000000821bfe80, LEN:65536
3810451875: global: Timer #0 stopped at tick 3810451875. Duration: 14024375
3810466250: global: Number of accelerators running = 2
3816483750: system.acctest.elem_matrix0_dma: Transfer completed in 6.38 us
3816557500: global: Timer #0 started at tick 3816557500
3816727500: global: DAG ID = 2
3816741250: global: Node ID = 2
3816760625: global: Node deadline difference = -2360
3816773125: global: Predicted memory time / byte = 0 us/byte
3816785625: global: Predicted memory time = 0 us
3816798125: global: Predicted memory time / byte = 0 us/byte
3816810625: global: Predicted memory time = 0 us
3816823125: global: Predicted memory time / byte = 0 us/byte
3816835625: global: Predicted memory time = 0 us
3816848125: global: Predicted memory time / byte = 0 us/byte
3816860625: global: Predicted memory time = 0 us
3830235875: system.acctest.elem_matrix0_dma: SRC:0x00000000821efe80, DST:0x0000000024000020, LEN:65536
3830445000: global: Timer #0 stopped at tick 3830445000. Duration: 13887500
3830459375: global: Number of accelerators running = 2
3842164875: system.acctest.elem_matrix0_dma: Transfer completed in 11.929 us
3842238125: global: Timer #0 started at tick 3842238125
3855573750: system.acctest.elem_matrix0_dma: SRC:0x000000008215fe80, DST:0x0000000024010020, LEN:65536
3855795000: global: Timer #0 stopped at tick 3855795000. Duration: 13556875
3855809375: global: Number of accelerators running = 2
3867531750: system.acctest.elem_matrix0_dma: Transfer completed in 11.958 us
3867605625: global: Timer #0 started at tick 3867605625
3868960000: global: Timer #0 stopped at tick 3868960000. Duration: 1354375
3868974375: global: Number of accelerators running = 2
********************************************************************************
system.acctest.elem_matrix0.compute
   ========= Performance Analysis =============
   Setup Time:                      5.987990seconds
   Simulation Time:                 86.187249seconds
   System Clock:                    1.000000GHz
   Transistor Latency:              1ns
   Runtime:                         10932 cycles
   Runtime:                         10.932000 us
   Stalls:                          0 cycles
   Executed Nodes:                  10931 cycles

********************************************************************************
   ========= Performance Analysis =================
   Setup Time:                      5987989624.000000ns
   Simulation Time:                 86187249071.000000ns
   System Clock:                    1.000000GHz
   Transistor Latency:              0ns
   Runtime:                         10932 cycles
   Runtime:                         0.000001 seconds
   Stalls:                          0 cycles
       Load Only:                   0 cycles
       Store Only:                  0 cycles
       Compute Only:                0 cycles
       Compute & Store:             0 cycles
       Load & Store:                0 cycles
       Load & Compute:              0 cycles
       Load & Compute & Store:      0 cycles
   Executed Nodes:                  10931 cycles
       Load Only:                   0 cycles
       Store Only:                  5 cycles
       Compute Only:                1 cycles
       Compute & Store:             21 cycles
       Load & Store:                0 cycles
       Load & Compute:              7 cycles
       Load & Compute & Store:      10897 cycles

   ========= Runtime FU's ========= (Max | Avg) ===
   Counter FU's:                      32 | 0.046838
   Integer Add/Sub FU's:               0 | 0.000000
   Integer Mul/Div FU's:               0 | 0.000000
   Integer Shifter FU's:               0 | 0.000000
   Integer Bitwise FU's:               1 | 0.000091
   Floating Point Float Add/Sub:      34 | 0.044252
   Floating Point Double Add/Sub:      0 | 0.000000
   Floating Point Float Mul/Div:       0 | 0.000000
   Floating Point Double Mul/Div:      0 | 0.000000
   0 Cycle Compare FU's:             102 | 0.046974
   GEP Instruction FU's:              96 | 0.046835
   Type Conversion FU's:               7 | 0.006782

   ========= Static FU's ==========================
   Counter FU's:                    0
   Integer Add/Sub FU's:            0
   Integer Mul/Div FU's:            0
   Integer Shifter FU's:            0
   Integer Bitwise FU's:            0
   Floating Point Float Add/Sub:    0
   Floating Point Double Add/Sub:   0
   Floating Point Float Mul/Div:    0
   Floating Point Double Mul/Div:   0
   0 Cycle Compare FU's:            0
   GEP Instruction FU's:            0
   Type Conversion FU's:            0
   Other:                           0

   ========= Pipeline Register Usage =============
   Total Number of Registers:       5641
   Max Register Usage Per Cycle:    138
   Avg Register Usage Per Cycle:    12.130992
   Avg Register Size (Bytes):       5.980606

   ========= Memory Configuration =================
   Cache Bus Ports:                 0
   Shared Cache Size:               0kB
   Local Bus Ports:                 0
   Private SPM Size:                256kB
   Private Read Ports:              0
   Private Write Ports:             0
   Private Read Bus Width:          64
   Private Write Bus Width:         64
       Memory Reads:                0
       Memory Writes:               0
   ========= Power Analysis ======================
   FU Leakage Power:                0.519269 mW 
   FU Dynamic Power:                0.154621 mW 
   FU Total Power:                  0.673890 mW 

   Registers Leakage Power:          0.005281 mW 
   Registers Dynamic Power:          0.015326 mW 
       Register Reads (Bits):        132616
       Register Writes (Bits):       133658
   Registers Total Power:            0.020607 mW

   SPM Leakage Power:               0.104100 mW
   SPM Read Dynamic Power:          4.985201 mW
   SPM Write Dynamic Power:         3.448926 mW
   SPM Total Power:                 8.538228 mW

   Cache Leakage Power:             0.000000 mW
   Cache Read Dynamic Power:        0.000000 mW
   Cache Write Dynamic Power:       0.000000 mW
   Cache Total Power:               0.000000 mW

   Accelerator Power:               0.694497 mW
   Accelerator Power (SPM):         9.232725 mW
   Accelerator Power (Cache):       0.694497 mW

   ========= Area Analysis =======================
   FU Area:                         70212.562500 um^2 (0.070213 mm^2)
   Register Area:                   429.271088 um^2 (0.000429 mm^2)
   SPM Area:                        2177.365505 um^2 (0.002177 mm^2)
   Cache Area:                      0.000000 um^2 (0.000000 mm^2)

   Accelerator Area:                70641.835938 um^2 (0.070642 mm^2)
   Accelerator Area (SPM):          72819.201442 um^2 (0.072819 mm^2)
   Accelerator Area (Cache):        70641.835938 um^2 (0.070642 mm^2)

   ========= SPM Resizing  =======================
   SPM Optimized Leakage Power:     0.004248 mW
   SPM Opt Area:                    178.524902 um^2

3879750625: global: Timer #0 started at tick 3879750625
3879919375: global: Timer #2 started at tick 3879919375
3880040000: global: Timer #2 stopped at tick 3880040000. Duration: 120625
3893207375: system.acctest.elem_matrix0_dma: SRC:0x0000000024020020, DST:0x00000000821ffe80, LEN:65536
3893556250: global: Timer #0 stopped at tick 3893556250. Duration: 13805625
3893570625: global: Number of accelerators running = 2
3899597375: system.acctest.elem_matrix0_dma: Transfer completed in 6.39 us
3899671250: global: Timer #0 started at tick 3899671250
3899840625: global: DAG ID = 2
3899854375: global: Node ID = 6
3899873750: global: Node deadline difference = -2009
3899886250: global: Predicted memory time / byte = 0 us/byte
3899898750: global: Predicted memory time = 0 us
3899911250: global: Predicted memory time / byte = 0 us/byte
3899923750: global: Predicted memory time = 0 us
3899936250: global: Predicted memory time / byte = 0 us/byte
3899948750: global: Predicted memory time = 0 us
3899961250: global: Predicted memory time / byte = 0 us/byte
3899973750: global: Predicted memory time = 0 us
3913360875: system.acctest.elem_matrix0_dma: SRC:0x00000000821bfe80, DST:0x0000000024000020, LEN:65536
3913585000: global: Timer #0 stopped at tick 3913585000. Duration: 13913750
3913599375: global: Number of accelerators running = 2
3925313875: system.acctest.elem_matrix0_dma: Transfer completed in 11.953 us
3925388125: global: Timer #0 started at tick 3925388125
3926750000: global: Timer #0 stopped at tick 3926750000. Duration: 1361875
3926764375: global: Number of accelerators running = 2
********************************************************************************
system.acctest.elem_matrix0.compute
   ========= Performance Analysis =============
   Setup Time:                      4.934146seconds
   Simulation Time:                 66.021685seconds
   System Clock:                    1.000000GHz
   Transistor Latency:              1ns
   Runtime:                         8316 cycles
   Runtime:                         8.316000 us
   Stalls:                          82 cycles
   Executed Nodes:                  8233 cycles

********************************************************************************
   ========= Performance Analysis =================
   Setup Time:                      4934145513.000000ns
   Simulation Time:                 66021685418.000008ns
   System Clock:                    1.000000GHz
[...]
   Setup Time:                      3530807354.000000ns
   Simulation Time:                 74094063181.000000ns
   System Clock:                    1.000000GHz
   Transistor Latency:              0ns
   Runtime:                         10944 cycles
   Runtime:                         0.000001 seconds
   Stalls:                          1 cycles
       Load Only:                   0 cycles
       Store Only:                  1 cycles
       Compute Only:                0 cycles
       Compute & Store:             0 cycles
       Load & Store:                0 cycles
       Load & Compute:              0 cycles
       Load & Compute & Store:      0 cycles
   Executed Nodes:                  10942 cycles
       Load Only:                   0 cycles
       Store Only:                  16 cycles
       Compute Only:                1 cycles
       Compute & Store:             21 cycles
       Load & Store:                0 cycles
       Load & Compute:              18 cycles
       Load & Compute & Store:      10886 cycles

   ========= Runtime FU's ========= (Max | Avg) ===
   Counter FU's:                      32 | 0.046786
   Integer Add/Sub FU's:               0 | 0.000000
   Integer Mul/Div FU's:               0 | 0.000000
   Integer Shifter FU's:               0 | 0.000000
   Integer Bitwise FU's:               1 | 0.000091
   Floating Point Float Add/Sub:       0 | 0.000000
   Floating Point Double Add/Sub:      0 | 0.000000
   Floating Point Float Mul/Div:       0 | 0.000000
   Floating Point Double Mul/Div:      0 | 0.000000
   0 Cycle Compare FU's:             102 | 0.047066
   GEP Instruction FU's:              96 | 0.046784
   Type Conversion FU's:               7 | 0.006775

   ========= Static FU's ==========================
   Counter FU's:                    0
   Integer Add/Sub FU's:            0
   Integer Mul/Div FU's:            0
   Integer Shifter FU's:            0
   Integer Bitwise FU's:            0
   Floating Point Float Add/Sub:    0
   Floating Point Double Add/Sub:   0
   Floating Point Float Mul/Div:    0
   Floating Point Double Mul/Div:   0
   0 Cycle Compare FU's:            0
   GEP Instruction FU's:            0
   Type Conversion FU's:            0
   Other:                           0

   ========= Pipeline Register Usage =============
   Total Number of Registers:       5641
   Max Register Usage Per Cycle:    137
   Avg Register Usage Per Cycle:    12.117690
   Avg Register Size (Bytes):       5.980606

   ========= Memory Configuration =================
   Cache Bus Ports:                 0
   Shared Cache Size:               0kB
   Local Bus Ports:                 0
   Private SPM Size:                256kB
   Private Read Ports:              0
   Private Write Ports:             0
   Private Read Bus Width:          64
   Private Write Bus Width:         64
       Memory Reads:                0
       Memory Writes:               0
   ========= Power Analysis ======================
   FU Leakage Power:                0.000611 mW 
   FU Dynamic Power:                0.036818 mW 
   FU Total Power:                  0.037429 mW 

   Registers Leakage Power:          0.005281 mW 
   Registers Dynamic Power:          0.015342 mW 
       Register Reads (Bits):        132616
       Register Writes (Bits):       133658
   Registers Total Power:            0.020624 mW

   SPM Leakage Power:               0.104100 mW
   SPM Read Dynamic Power:          24.806687 mW
   SPM Write Dynamic Power:         20.157806 mW
   SPM Total Power:                 45.068593 mW

   Cache Leakage Power:             0.000000 mW
   Cache Read Dynamic Power:        0.000000 mW
   Cache Write Dynamic Power:       0.000000 mW
   Cache Total Power:               0.000000 mW

   Accelerator Power:               0.058053 mW
   Accelerator Power (SPM):         45.126646 mW
   Accelerator Power (Cache):       0.058053 mW

   ========= Area Analysis =======================
   FU Area:                         50.369961 um^2 (0.000050 mm^2)
   Register Area:                   429.271088 um^2 (0.000429 mm^2)
   SPM Area:                        2177.365505 um^2 (0.002177 mm^2)
   Cache Area:                      0.000000 um^2 (0.000000 mm^2)

   Accelerator Area:                479.641052 um^2 (0.000480 mm^2)
   Accelerator Area (SPM):          2657.006557 um^2 (0.002657 mm^2)
   Accelerator Area (Cache):        479.641052 um^2 (0.000480 mm^2)

   ========= SPM Resizing  =======================
   SPM Optimized Leakage Power:     0.004248 mW
   SPM Opt Area:                    178.524902 um^2

28085597500: global: Timer #0 started at tick 28085597500
28085760000: global: Timer #2 started at tick 28085760000
28085791875: global: Timer #2 stopped at tick 28085791875. Duration: 31875
28086093125: global: DAG ID = 1
28086106875: global: Node ID = 19
28086120000: global: Node deadline difference = 9580
28086132500: global: Predicted memory time / byte = 0 us/byte
28086145000: global: Predicted memory time = 0 us
28086157500: global: Predicted memory time / byte = 0 us/byte
28086170000: global: Predicted memory time = 0 us
28086182500: global: Predicted memory time / byte = 0 us/byte
28086195000: global: Predicted memory time = 0 us
28086207500: global: Predicted memory time / byte = 0 us/byte
28086220000: global: Predicted memory time = 0 us
28087065875: system.acctest.convolution0_dma: SRC:0x0000000024020020, DST:0x0000000022000020, LEN:65536
28087288125: global: Timer #0 stopped at tick 28087288125. Duration: 1690625
28087302500: global: Number of accelerators running = 1
28097326875: system.acctest.convolution0_dma: Transfer completed in 10.261 us
28097411875: global: Timer #0 started at tick 28097411875
28098280875: system.acctest.convolution0_dma: SRC:0x00000000820cdc80, DST:0x0000000022030020, LEN:100
28098377875: system.acctest.convolution0_dma: Transfer completed in 0.097 us
28098485625: global: Timer #0 stopped at tick 28098485625. Duration: 1073750
28098500000: global: Number of accelerators running = 1
28098608125: global: Timer #0 started at tick 28098608125
28099891250: global: Timer #0 stopped at tick 28099891250. Duration: 1283125
28099905625: global: Number of accelerators running = 1
********************************************************************************
system.acctest.convolution0.compute
   ========= Performance Analysis =============
   Setup Time:                      0.421423seconds
   Simulation Time:                 194.969668seconds
   System Clock:                    1.000000GHz
   Transistor Latency:              1ns
   Runtime:                         1545605 cycles
   Runtime:                         1545.605000 us
   Stalls:                          0 cycles
   Executed Nodes:                  1545604 cycles

********************************************************************************
   ========= Performance Analysis =================
   Setup Time:                      421423471.000000ns
   Simulation Time:                 194969667715.000000ns
   System Clock:                    1.000000GHz
   Transistor Latency:              0ns
   Runtime:                         1545605 cycles
   Runtime:                         0.000155 seconds
   Stalls:                          0 cycles
       Load Only:                   0 cycles
       Store Only:                  0 cycles
       Compute Only:                0 cycles
       Compute & Store:             0 cycles
       Load & Store:                0 cycles
       Load & Compute:              0 cycles
       Load & Compute & Store:      0 cycles
   Executed Nodes:                  1545604 cycles
       Load Only:                   0 cycles
       Store Only:                  0 cycles
       Compute Only:                1127274 cycles
       Compute & Store:             16374 cycles
       Load & Store:                0 cycles
       Load & Compute:              401946 cycles
       Load & Compute & Store:      10 cycles

   ========= Runtime FU's ========= (Max | Avg) ===
   Counter FU's:                       3 | 0.112298
   Integer Add/Sub FU's:               4 | 0.211564
   Integer Mul/Div FU's:               1 | 0.052505
   Integer Shifter FU's:              10 | 0.005268
   Integer Bitwise FU's:               2 | 0.184266
   Floating Point Float Add/Sub:       5 | 0.207991
   Floating Point Double Add/Sub:      0 | 0.000000
   Floating Point Float Mul/Div:       2 | 0.130117
   Floating Point Double Mul/Div:      0 | 0.000000
   0 Cycle Compare FU's:              40 | 0.145956
   GEP Instruction FU's:               4 | 0.132683
   Type Conversion FU's:               7 | 0.186618

   ========= Static FU's ==========================
   Counter FU's:                    0
   Integer Add/Sub FU's:            0
   Integer Mul/Div FU's:            0
   Integer Shifter FU's:            0
   Integer Bitwise FU's:            0
   Floating Point Float Add/Sub:    0
   Floating Point Double Add/Sub:   0
   Floating Point Float Mul/Div:    0
   Floating Point Double Mul/Div:   0
   0 Cycle Compare FU's:            0
   GEP Instruction FU's:            0
   Type Conversion FU's:            0
   Other:                           0

   ========= Pipeline Register Usage =============
   Total Number of Registers:       1702
   Max Register Usage Per Cycle:    20
   Avg Register Usage Per Cycle:    6.348199
   Avg Register Size (Bytes):       5.569148

   ========= Memory Configuration =================
   Cache Bus Ports:                 0
   Shared Cache Size:               0kB
   Local Bus Ports:                 0
   Private SPM Size:                192kB
   Private Read Ports:              0
   Private Write Ports:             0
   Private Read Bus Width:          64
   Private Write Bus Width:         64
       Memory Reads:                0
       Memory Writes:               0
   ========= Power Analysis ======================
   FU Leakage Power:                0.196912 mW 
   FU Dynamic Power:                2743.028564 mW 
   FU Total Power:                  2743.225586 mW 

   Registers Leakage Power:          0.002459 mW 
   Registers Dynamic Power:          75.251152 mW 
       Register Reads (Bits):        9811808
       Register Writes (Bits):       10049727
   Registers Total Power:            75.253609 mW

   SPM Leakage Power:               0.078311 mW
   SPM Read Dynamic Power:          42.378247 mW
   SPM Write Dynamic Power:         7.740710 mW
   SPM Total Power:                 50.197268 mW

   Cache Leakage Power:             0.000000 mW
   Cache Read Dynamic Power:        0.000000 mW
   Cache Write Dynamic Power:       0.000000 mW
   Cache Total Power:               0.000000 mW

   Accelerator Power:               2818.479248 mW
   Accelerator Power (SPM):         2868.676516 mW
   Accelerator Power (Cache):       2818.479248 mW

   ========= Area Analysis =======================
   FU Area:                         22931.867188 um^2 (0.022932 mm^2)
   Register Area:                   199.868912 um^2 (0.000200 mm^2)
   SPM Area:                        1748.188735 um^2 (0.001748 mm^2)
   Cache Area:                      0.000000 um^2 (0.000000 mm^2)

   Accelerator Area:                23131.736328 um^2 (0.023132 mm^2)
   Accelerator Area (SPM):          24879.925063 um^2 (0.024880 mm^2)
   Accelerator Area (Cache):        23131.736328 um^2 (0.023132 mm^2)

   ========= SPM Resizing  =======================
   SPM Optimized Leakage Power:     0.002053 mW
   SPM Opt Area:                    145.024971 um^2

29645370625: global: Timer #0 started at tick 29645370625
29645533125: global: Timer #2 started at tick 29645533125
29645565625: global: Timer #2 stopped at tick 29645565625. Duration: 32500
29645800000: global: DAG ID = 1
29645813750: global: Node ID = 20
29645826875: global: Node deadline difference = 9562
29645839375: global: Predicted memory time / byte = 0 us/byte
29645851875: global: Predicted memory time = 0 us
29645864375: global: Predicted memory time / byte = 0 us/byte
29645876875: global: Predicted memory time = 0 us
29645889375: global: Predicted memory time / byte = 0 us/byte
29645901875: global: Predicted memory time = 0 us
29645914375: global: Predicted memory time / byte = 0 us/byte
29645926875: global: Predicted memory time = 0 us
29659374500: system.acctest.elem_matrix0_dma: SRC:0x00000000820fdd40, DST:0x0000000024000020, LEN:65536
29659573125: global: Timer #0 stopped at tick 29659573125. Duration: 14202500
29659586875: global: Number of accelerators running = 1
29671308500: system.acctest.elem_matrix0_dma: Transfer completed in 11.934 us
29671393750: global: Timer #0 started at tick 29671393750
29672258750: system.acctest.elem_matrix0_dma: SRC:0x0000000022010020, DST:0x0000000024010020, LEN:65536
29672471875: global: Timer #0 stopped at tick 29672471875. Duration: 1078125
29672486250: global: Number of accelerators running = 1
29682519750: system.acctest.elem_matrix0_dma: Transfer completed in 10.261 us
29682594375: global: Timer #0 started at tick 29682594375
29683913125: global: Timer #0 stopped at tick 29683913125. Duration: 1318750
29683927500: global: Number of accelerators running = 1
********************************************************************************
system.acctest.elem_matrix0.compute
   ========= Performance Analysis =============
   Setup Time:                      3.529977seconds
   Simulation Time:                 77.935732seconds
   System Clock:                    1.000000GHz
   Transistor Latency:              1ns
   Runtime:                         10932 cycles
   Runtime:                         10.932000 us
   Stalls:                          1 cycles
   Executed Nodes:                  10930 cycles

********************************************************************************
   ========= Performance Analysis =================
   Setup Time:                      3529977265.000000ns
   Simulation Time:                 77935732295.000000ns
   System Clock:                    1.000000GHz
   Transistor Latency:              0ns
   Runtime:                         10932 cycles
   Runtime:                         0.000001 seconds
   Stalls:                          1 cycles
       Load Only:                   0 cycles
       Store Only:                  1 cycles
       Compute Only:                0 cycles
       Compute & Store:             0 cycles
       Load & Store:                0 cycles
       Load & Compute:              0 cycles
       Load & Compute & Store:      0 cycles
   Executed Nodes:                  10930 cycles
       Load Only:                   0 cycles
       Store Only:                  4 cycles
       Compute Only:                1 cycles
       Compute & Store:             21 cycles
       Load & Store:                0 cycles
       Load & Compute:              6 cycles
       Load & Compute & Store:      10898 cycles

   ========= Runtime FU's ========= (Max | Avg) ===
   Counter FU's:                      32 | 0.046838
   Integer Add/Sub FU's:               0 | 0.000000
   Integer Mul/Div FU's:               0 | 0.000000
   Integer Shifter FU's:               0 | 0.000000
   Integer Bitwise FU's:               1 | 0.000091
   Floating Point Float Add/Sub:       0 | 0.000000
   Floating Point Double Add/Sub:      0 | 0.000000
   Floating Point Float Mul/Div:      34 | 0.044252
   Floating Point Double Mul/Div:      0 | 0.000000
   0 Cycle Compare FU's:             102 | 0.046945
   GEP Instruction FU's:              96 | 0.046835
   Type Conversion FU's:               7 | 0.006782

   ========= Static FU's ==========================
   Counter FU's:                    0
   Integer Add/Sub FU's:            0
   Integer Mul/Div FU's:            0
   Integer Shifter FU's:            0
   Integer Bitwise FU's:            0
   Floating Point Float Add/Sub:    0
   Floating Point Double Add/Sub:   0
   Floating Point Float Mul/Div:    0
   Floating Point Double Mul/Div:   0
   0 Cycle Compare FU's:            0
   GEP Instruction FU's:            0
   Type Conversion FU's:            0
   Other:                           0

   ========= Pipeline Register Usage =============
   Total Number of Registers:       5641
   Max Register Usage Per Cycle:    137
   Avg Register Usage Per Cycle:    12.130992
   Avg Register Size (Bytes):       5.980606

   ========= Memory Configuration =================
   Cache Bus Ports:                 0
   Shared Cache Size:               0kB
   Local Bus Ports:                 0
   Private SPM Size:                256kB
   Private Read Ports:              0
   Private Write Ports:             0
   Private Read Bus Width:          64
   Private Write Bus Width:         64
       Memory Reads:                0
       Memory Writes:               0
   ========= Power Analysis ======================
   FU Leakage Power:                0.045377 mW 
   FU Dynamic Power:                0.142576 mW 
   FU Total Power:                  0.187953 mW 

   Registers Leakage Power:          0.005281 mW 
   Registers Dynamic Power:          0.015326 mW 
       Register Reads (Bits):        132616
       Register Writes (Bits):       133658
   Registers Total Power:            0.020607 mW

   SPM Leakage Power:               0.104100 mW
   SPM Read Dynamic Power:          24.906850 mW
   SPM Write Dynamic Power:         20.213311 mW
   SPM Total Power:                 45.224262 mW

   Cache Leakage Power:             0.000000 mW
   Cache Read Dynamic Power:        0.000000 mW
   Cache Write Dynamic Power:       0.000000 mW
   Cache Total Power:               0.000000 mW

   Accelerator Power:               0.208559 mW
   Accelerator Power (SPM):         45.432821 mW
   Accelerator Power (Cache):       0.208559 mW

   ========= Area Analysis =======================
   FU Area:                         5472.068359 um^2 (0.005472 mm^2)
   Register Area:                   429.271088 um^2 (0.000429 mm^2)
   SPM Area:                        2177.365505 um^2 (0.002177 mm^2)
   Cache Area:                      0.000000 um^2 (0.000000 mm^2)

   Accelerator Area:                5901.339355 um^2 (0.005901 mm^2)
   Accelerator Area (SPM):          8078.704860 um^2 (0.008079 mm^2)
   Accelerator Area (Cache):        5901.339355 um^2 (0.005901 mm^2)

   ========= SPM Resizing  =======================
   SPM Optimized Leakage Power:     0.004248 mW
   SPM Opt Area:                    178.524902 um^2

29694710625: global: Timer #0 started at tick 29694710625
29708017375: system.acctest.elem_matrix0_dma: SRC:0x0000000024020020, DST:0x00000000820fdd40, LEN:65536
29708361250: global: Timer #0 stopped at tick 29708361250. Duration: 13650625
29708375625: global: Number of accelerators running = 1
29714375375: system.acctest.elem_matrix0_dma: Transfer completed in 6.358 us
29714461250: global: Timer #0 started at tick 29714461250
29714640625: global: DAG ID = 1
29714654375: global: Node ID = 21
29714678750: global: DAG execution time = 26241
29714691875: global: DAG deadline difference = 9574
29714710000: global: Node deadline difference = 9574
29714722500: global: Predicted memory time / byte = 0 us/byte
29714735000: global: Predicted memory time = 0 us
29714747500: global: Predicted memory time / byte = 0 us/byte
29714760000: global: Predicted memory time = 0 us
29714772500: global: Predicted memory time / byte = 0 us/byte
29714785000: global: Predicted memory time = 0 us
29714797500: global: Predicted memory time / byte = 0 us/byte
29714810000: global: Predicted memory time = 0 us
29714901250: global: Timer #0 stopped at tick 29714901250. Duration: 440000
29714915625: global: Number of accelerators running = 0
29714993750: global: Number of forwards = 92
29715155000: global: Number of colocations = 67
29715174375: global: Number of DAG deadlines met = 3
29715194375: global: Number of node deadlines met = 152
29715235000: global: Total predicted compute time = 0 us
Exiting @ tick 29715486250 because m5_exit instruction encountered
