
---------- Begin Simulation Statistics ----------
final_tick                                39429710000                       # Number of ticks from beginning of simulation (restored from checkpoints and never reset)
host_inst_rate                                    697                       # Simulator instruction rate (inst/s)
host_mem_usage                               12500320                       # Number of bytes of host memory used
host_op_rate                                      713                       # Simulator op (including micro ops) rate (op/s)
host_seconds                                 34186.32                       # Real time elapsed on the host
host_tick_rate                                 853180                       # Simulator tick rate (ticks/s)
sim_freq                                 1000000000000                       # Frequency of simulated ticks
sim_insts                                    23841498                       # Number of instructions simulated
sim_ops                                      24390795                       # Number of ops (including micro ops) simulated
sim_seconds                                  0.029167                       # Number of seconds simulated
sim_ticks                                 29167071875                       # Number of ticks simulated
system.acctest.coherency_bus.snoop_filter.hit_multi_requests            0                       # Number of requests hitting in the snoop filter with multiple (>1) holders of the requested data.
system.acctest.coherency_bus.snoop_filter.hit_multi_snoops            0                       # Number of snoops hitting in the snoop filter with multiple (>1) holders of the requested data.
system.acctest.coherency_bus.snoop_filter.hit_single_requests            0                       # Number of requests hitting in the snoop filter with a single holder of the requested data.
system.acctest.coherency_bus.snoop_filter.hit_single_snoops            0                       # Number of snoops hitting in the snoop filter with a single holder of the requested data.
system.acctest.coherency_bus.snoop_filter.tot_requests            0                       # Total number of requests made to the snoop filter.
system.acctest.coherency_bus.snoop_filter.tot_snoops            0                       # Total number of snoops made to the snoop filter.
system.cf0.dma_read_bytes                           0                       # Number of bytes transfered via DMA reads (not PRD).
system.cf0.dma_read_full_pages                      0                       # Number of full page size DMA reads (not PRD).
system.cf0.dma_read_txs                             0                       # Number of DMA read transactions (not PRD).
system.cf0.dma_write_bytes                          0                       # Number of bytes transfered via DMA writes.
system.cf0.dma_write_full_pages                     0                       # Number of full page size DMA writes.
system.cf0.dma_write_txs                            0                       # Number of DMA write transactions.
system.cpu.branchPred.BTBCorrect                    0                       # Number of correct BTB predictions (this stat may not work properly.
system.cpu.branchPred.BTBHitPct             97.574762                       # BTB Hit Percentage
system.cpu.branchPred.BTBHits                 1123106                       # Number of BTB hits
system.cpu.branchPred.BTBLookups              1151021                       # Number of BTB lookups
system.cpu.branchPred.RASInCorrect               1461                       # Number of incorrect RAS predictions.
system.cpu.branchPred.condIncorrect              6799                       # Number of conditional branches incorrect
system.cpu.branchPred.condPredicted           1137247                       # Number of conditional branches predicted
system.cpu.branchPred.indirectHits               8662                       # Number of indirect target hits.
system.cpu.branchPred.indirectLookups           10215                       # Number of indirect predictor lookups.
system.cpu.branchPred.indirectMisses             1553                       # Number of indirect misses.
system.cpu.branchPred.lookups                 1203020                       # Number of BP lookups
system.cpu.branchPred.usedRAS                   20665                       # Number of times the RAS was used to get a target.
system.cpu.branchPredindirectMispredicted         1512                       # Number of mispredicted indirect branches.
system.cpu.committedInsts                     7125199                       # Number of instructions committed
system.cpu.committedOps                       7228960                       # Number of ops (including micro ops) committed
system.cpu.cpi                               3.379596                       # CPI: cycles per instruction
system.cpu.discardedOps                         18740                       # Number of ops (including micro ops) which were discarded before commit
system.cpu.dtb.accesses                             0                       # DTB accesses
system.cpu.dtb.align_faults                         0                       # Number of TLB faults due to alignment restrictions
system.cpu.dtb.domain_faults                        0                       # Number of TLB faults due to domain restrictions
system.cpu.dtb.flush_entries                        0                       # Number of entries that have been flushed from TLB
system.cpu.dtb.flush_tlb                            0                       # Number of times complete TLB was flushed
system.cpu.dtb.flush_tlb_asid                       0                       # Number of times TLB was flushed by ASID
system.cpu.dtb.flush_tlb_mva                        0                       # Number of times TLB was flushed by MVA
system.cpu.dtb.flush_tlb_mva_asid                   0                       # Number of times TLB was flushed by MVA & ASID
system.cpu.dtb.hits                                 0                       # DTB hits
system.cpu.dtb.inst_accesses                        0                       # ITB inst accesses
system.cpu.dtb.inst_hits                            0                       # ITB inst hits
system.cpu.dtb.inst_misses                          0                       # ITB inst misses
system.cpu.dtb.misses                               0                       # DTB misses
system.cpu.dtb.perms_faults                         0                       # Number of TLB faults due to permissions restrictions
system.cpu.dtb.prefetch_faults                      0                       # Number of TLB faults due to prefetch
system.cpu.dtb.read_accesses                        0                       # DTB read accesses
system.cpu.dtb.read_hits                            0                       # DTB read hits
system.cpu.dtb.read_misses                          0                       # DTB read misses
system.cpu.dtb.stage2_mmu.stage2_tlb.accesses            0                       # DTB accesses
system.cpu.dtb.stage2_mmu.stage2_tlb.align_faults            0                       # Number of TLB faults due to alignment restrictions
system.cpu.dtb.stage2_mmu.stage2_tlb.domain_faults            0                       # Number of TLB faults due to domain restrictions
system.cpu.dtb.stage2_mmu.stage2_tlb.flush_entries            0                       # Number of entries that have been flushed from TLB
system.cpu.dtb.stage2_mmu.stage2_tlb.flush_tlb            0                       # Number of times complete TLB was flushed
system.cpu.dtb.stage2_mmu.stage2_tlb.flush_tlb_asid            0                       # Number of times TLB was flushed by ASID
system.cpu.dtb.stage2_mmu.stage2_tlb.flush_tlb_mva            0                       # Number of times TLB was flushed by MVA
system.cpu.dtb.stage2_mmu.stage2_tlb.flush_tlb_mva_asid            0                       # Number of times TLB was flushed by MVA & ASID
system.cpu.dtb.stage2_mmu.stage2_tlb.hits            0                       # DTB hits
system.cpu.dtb.stage2_mmu.stage2_tlb.inst_accesses            0                       # ITB inst accesses
system.cpu.dtb.stage2_mmu.stage2_tlb.inst_hits            0                       # ITB inst hits
system.cpu.dtb.stage2_mmu.stage2_tlb.inst_misses            0                       # ITB inst misses
system.cpu.dtb.stage2_mmu.stage2_tlb.misses            0                       # DTB misses
system.cpu.dtb.stage2_mmu.stage2_tlb.perms_faults            0                       # Number of TLB faults due to permissions restrictions
system.cpu.dtb.stage2_mmu.stage2_tlb.prefetch_faults            0                       # Number of TLB faults due to prefetch
system.cpu.dtb.stage2_mmu.stage2_tlb.read_accesses            0                       # DTB read accesses
system.cpu.dtb.stage2_mmu.stage2_tlb.read_hits            0                       # DTB read hits
system.cpu.dtb.stage2_mmu.stage2_tlb.read_misses            0                       # DTB read misses
system.cpu.dtb.stage2_mmu.stage2_tlb.walker.walkRequestOrigin_Requested::Data            0                       # Table walker requests started/completed, data/inst
system.cpu.dtb.stage2_mmu.stage2_tlb.walker.walkRequestOrigin_Requested::Inst            0                       # Table walker requests started/completed, data/inst
system.cpu.dtb.stage2_mmu.stage2_tlb.walker.walkRequestOrigin_Requested::total            0                       # Table walker requests started/completed, data/inst
system.cpu.dtb.stage2_mmu.stage2_tlb.walker.walkRequestOrigin_Completed::Data            0                       # Table walker requests started/completed, data/inst
system.cpu.dtb.stage2_mmu.stage2_tlb.walker.walkRequestOrigin_Completed::Inst            0                       # Table walker requests started/completed, data/inst
system.cpu.dtb.stage2_mmu.stage2_tlb.walker.walkRequestOrigin_Completed::total            0                       # Table walker requests started/completed, data/inst
system.cpu.dtb.stage2_mmu.stage2_tlb.walker.walkRequestOrigin::total            0                       # Table walker requests started/completed, data/inst
system.cpu.dtb.stage2_mmu.stage2_tlb.walker.walks            0                       # Table walker walks requested
system.cpu.dtb.stage2_mmu.stage2_tlb.write_accesses            0                       # DTB write accesses
system.cpu.dtb.stage2_mmu.stage2_tlb.write_hits            0                       # DTB write hits
system.cpu.dtb.stage2_mmu.stage2_tlb.write_misses            0                       # DTB write misses
system.cpu.dtb.walker.walkRequestOrigin_Requested::Data            0                       # Table walker requests started/completed, data/inst
system.cpu.dtb.walker.walkRequestOrigin_Requested::Inst            0                       # Table walker requests started/completed, data/inst
system.cpu.dtb.walker.walkRequestOrigin_Requested::total            0                       # Table walker requests started/completed, data/inst
system.cpu.dtb.walker.walkRequestOrigin_Completed::Data            0                       # Table walker requests started/completed, data/inst
system.cpu.dtb.walker.walkRequestOrigin_Completed::Inst            0                       # Table walker requests started/completed, data/inst
system.cpu.dtb.walker.walkRequestOrigin_Completed::total            0                       # Table walker requests started/completed, data/inst
system.cpu.dtb.walker.walkRequestOrigin::total            0                       # Table walker requests started/completed, data/inst
system.cpu.dtb.walker.walks                         0                       # Table walker walks requested
system.cpu.dtb.write_accesses                       0                       # DTB write accesses
system.cpu.dtb.write_hits                           0                       # DTB write hits
system.cpu.dtb.write_misses                         0                       # DTB write misses
system.cpu.fetch2.amo_instructions                  0                       # Number of memory atomic instructions successfully decoded
system.cpu.fetch2.fp_instructions                   0                       # Number of floating point instructions successfully decoded
system.cpu.fetch2.int_instructions            3607155                       # Number of integer instructions successfully decoded
system.cpu.fetch2.load_instructions            203933                       # Number of memory load instructions successfully decoded
system.cpu.fetch2.store_instructions          2224590                       # Number of memory store instructions successfully decoded
system.cpu.fetch2.vec_instructions                  0                       # Number of SIMD instructions successfully decoded
system.cpu.idleCycles                         7322003                       # Total number of cycles that the object has spent stopped
system.cpu.ipc                               0.295893                       # IPC: instructions per cycle
system.cpu.itb.accesses                             0                       # DTB accesses
system.cpu.itb.align_faults                         0                       # Number of TLB faults due to alignment restrictions
system.cpu.itb.domain_faults                        0                       # Number of TLB faults due to domain restrictions
system.cpu.itb.flush_entries                        0                       # Number of entries that have been flushed from TLB
system.cpu.itb.flush_tlb                            0                       # Number of times complete TLB was flushed
system.cpu.itb.flush_tlb_asid                       0                       # Number of times TLB was flushed by ASID
system.cpu.itb.flush_tlb_mva                        0                       # Number of times TLB was flushed by MVA
system.cpu.itb.flush_tlb_mva_asid                   0                       # Number of times TLB was flushed by MVA & ASID
system.cpu.itb.hits                                 0                       # DTB hits
system.cpu.itb.inst_accesses                        0                       # ITB inst accesses
system.cpu.itb.inst_hits                            0                       # ITB inst hits
system.cpu.itb.inst_misses                          0                       # ITB inst misses
system.cpu.itb.misses                               0                       # DTB misses
system.cpu.itb.perms_faults                         0                       # Number of TLB faults due to permissions restrictions
system.cpu.itb.prefetch_faults                      0                       # Number of TLB faults due to prefetch
system.cpu.itb.read_accesses                        0                       # DTB read accesses
system.cpu.itb.read_hits                            0                       # DTB read hits
system.cpu.itb.read_misses                          0                       # DTB read misses
system.cpu.itb.stage2_mmu.stage2_tlb.accesses            0                       # DTB accesses
system.cpu.itb.stage2_mmu.stage2_tlb.align_faults            0                       # Number of TLB faults due to alignment restrictions
system.cpu.itb.stage2_mmu.stage2_tlb.domain_faults            0                       # Number of TLB faults due to domain restrictions
system.cpu.itb.stage2_mmu.stage2_tlb.flush_entries            0                       # Number of entries that have been flushed from TLB
system.cpu.itb.stage2_mmu.stage2_tlb.flush_tlb            0                       # Number of times complete TLB was flushed
system.cpu.itb.stage2_mmu.stage2_tlb.flush_tlb_asid            0                       # Number of times TLB was flushed by ASID
system.cpu.itb.stage2_mmu.stage2_tlb.flush_tlb_mva            0                       # Number of times TLB was flushed by MVA
system.cpu.itb.stage2_mmu.stage2_tlb.flush_tlb_mva_asid            0                       # Number of times TLB was flushed by MVA & ASID
system.cpu.itb.stage2_mmu.stage2_tlb.hits            0                       # DTB hits
system.cpu.itb.stage2_mmu.stage2_tlb.inst_accesses            0                       # ITB inst accesses
system.cpu.itb.stage2_mmu.stage2_tlb.inst_hits            0                       # ITB inst hits
system.cpu.itb.stage2_mmu.stage2_tlb.inst_misses            0                       # ITB inst misses
system.cpu.itb.stage2_mmu.stage2_tlb.misses            0                       # DTB misses
system.cpu.itb.stage2_mmu.stage2_tlb.perms_faults            0                       # Number of TLB faults due to permissions restrictions
system.cpu.itb.stage2_mmu.stage2_tlb.prefetch_faults            0                       # Number of TLB faults due to prefetch
system.cpu.itb.stage2_mmu.stage2_tlb.read_accesses            0                       # DTB read accesses
system.cpu.itb.stage2_mmu.stage2_tlb.read_hits            0                       # DTB read hits
system.cpu.itb.stage2_mmu.stage2_tlb.read_misses            0                       # DTB read misses
system.cpu.itb.stage2_mmu.stage2_tlb.walker.walkRequestOrigin_Requested::Data            0                       # Table walker requests started/completed, data/inst
system.cpu.itb.stage2_mmu.stage2_tlb.walker.walkRequestOrigin_Requested::Inst            0                       # Table walker requests started/completed, data/inst
system.cpu.itb.stage2_mmu.stage2_tlb.walker.walkRequestOrigin_Requested::total            0                       # Table walker requests started/completed, data/inst
system.cpu.itb.stage2_mmu.stage2_tlb.walker.walkRequestOrigin_Completed::Data            0                       # Table walker requests started/completed, data/inst
system.cpu.itb.stage2_mmu.stage2_tlb.walker.walkRequestOrigin_Completed::Inst            0                       # Table walker requests started/completed, data/inst
system.cpu.itb.stage2_mmu.stage2_tlb.walker.walkRequestOrigin_Completed::total            0                       # Table walker requests started/completed, data/inst
system.cpu.itb.stage2_mmu.stage2_tlb.walker.walkRequestOrigin::total            0                       # Table walker requests started/completed, data/inst
system.cpu.itb.stage2_mmu.stage2_tlb.walker.walks            0                       # Table walker walks requested
system.cpu.itb.stage2_mmu.stage2_tlb.write_accesses            0                       # DTB write accesses
system.cpu.itb.stage2_mmu.stage2_tlb.write_hits            0                       # DTB write hits
system.cpu.itb.stage2_mmu.stage2_tlb.write_misses            0                       # DTB write misses
system.cpu.itb.walker.walkRequestOrigin_Requested::Data            0                       # Table walker requests started/completed, data/inst
system.cpu.itb.walker.walkRequestOrigin_Requested::Inst            0                       # Table walker requests started/completed, data/inst
system.cpu.itb.walker.walkRequestOrigin_Requested::total            0                       # Table walker requests started/completed, data/inst
system.cpu.itb.walker.walkRequestOrigin_Completed::Data            0                       # Table walker requests started/completed, data/inst
system.cpu.itb.walker.walkRequestOrigin_Completed::Inst            0                       # Table walker requests started/completed, data/inst
system.cpu.itb.walker.walkRequestOrigin_Completed::total            0                       # Table walker requests started/completed, data/inst
system.cpu.itb.walker.walkRequestOrigin::total            0                       # Table walker requests started/completed, data/inst
system.cpu.itb.walker.walks                         0                       # Table walker walks requested
system.cpu.itb.write_accesses                       0                       # DTB write accesses
system.cpu.itb.write_hits                           0                       # DTB write hits
system.cpu.itb.write_misses                         0                       # DTB write misses
system.cpu.kern.inst.arm                            0                       # number of arm instructions executed
system.cpu.kern.inst.quiesce                     1461                       # number of quiesce instructions executed
system.cpu.numCycles                         24080297                       # number of cpu cycles simulated
system.cpu.numFetchSuspends                      1461                       # Number of times Execute suspended instruction fetching
system.cpu.numWorkItemsCompleted                    0                       # number of work items this cpu completed
system.cpu.numWorkItemsStarted                      0                       # number of work items this cpu started
system.cpu.op_class_0::No_OpClass                   0      0.00%      0.00% # Class of committed instruction
system.cpu.op_class_0::IntAlu                 4724687     65.36%     65.36% # Class of committed instruction
system.cpu.op_class_0::IntMult                   3091      0.04%     65.40% # Class of committed instruction
system.cpu.op_class_0::IntDiv                       0      0.00%     65.40% # Class of committed instruction
system.cpu.op_class_0::FloatAdd                     0      0.00%     65.40% # Class of committed instruction
system.cpu.op_class_0::FloatCmp                     0      0.00%     65.40% # Class of committed instruction
system.cpu.op_class_0::FloatCvt                     0      0.00%     65.40% # Class of committed instruction
system.cpu.op_class_0::FloatMult                    0      0.00%     65.40% # Class of committed instruction
system.cpu.op_class_0::FloatMultAcc                 0      0.00%     65.40% # Class of committed instruction
system.cpu.op_class_0::FloatDiv                     0      0.00%     65.40% # Class of committed instruction
system.cpu.op_class_0::FloatMisc                    0      0.00%     65.40% # Class of committed instruction
system.cpu.op_class_0::FloatSqrt                    0      0.00%     65.40% # Class of committed instruction
system.cpu.op_class_0::SimdAdd                      0      0.00%     65.40% # Class of committed instruction
system.cpu.op_class_0::SimdAddAcc                   0      0.00%     65.40% # Class of committed instruction
system.cpu.op_class_0::SimdAlu                      0      0.00%     65.40% # Class of committed instruction
system.cpu.op_class_0::SimdCmp                      0      0.00%     65.40% # Class of committed instruction
system.cpu.op_class_0::SimdCvt                      0      0.00%     65.40% # Class of committed instruction
system.cpu.op_class_0::SimdMisc                     0      0.00%     65.40% # Class of committed instruction
system.cpu.op_class_0::SimdMult                     0      0.00%     65.40% # Class of committed instruction
system.cpu.op_class_0::SimdMultAcc                  0      0.00%     65.40% # Class of committed instruction
system.cpu.op_class_0::SimdShift                    0      0.00%     65.40% # Class of committed instruction
system.cpu.op_class_0::SimdShiftAcc                 0      0.00%     65.40% # Class of committed instruction
system.cpu.op_class_0::SimdDiv                      0      0.00%     65.40% # Class of committed instruction
system.cpu.op_class_0::SimdSqrt                     0      0.00%     65.40% # Class of committed instruction
system.cpu.op_class_0::SimdFloatAdd                 0      0.00%     65.40% # Class of committed instruction
system.cpu.op_class_0::SimdFloatAlu                 0      0.00%     65.40% # Class of committed instruction
system.cpu.op_class_0::SimdFloatCmp                 0      0.00%     65.40% # Class of committed instruction
system.cpu.op_class_0::SimdFloatCvt                 0      0.00%     65.40% # Class of committed instruction
system.cpu.op_class_0::SimdFloatDiv                 0      0.00%     65.40% # Class of committed instruction
system.cpu.op_class_0::SimdFloatMisc                0      0.00%     65.40% # Class of committed instruction
system.cpu.op_class_0::SimdFloatMult                0      0.00%     65.40% # Class of committed instruction
system.cpu.op_class_0::SimdFloatMultAcc             0      0.00%     65.40% # Class of committed instruction
system.cpu.op_class_0::SimdFloatSqrt                0      0.00%     65.40% # Class of committed instruction
system.cpu.op_class_0::SimdReduceAdd                0      0.00%     65.40% # Class of committed instruction
system.cpu.op_class_0::SimdReduceAlu                0      0.00%     65.40% # Class of committed instruction
system.cpu.op_class_0::SimdReduceCmp                0      0.00%     65.40% # Class of committed instruction
system.cpu.op_class_0::SimdFloatReduceAdd            0      0.00%     65.40% # Class of committed instruction
system.cpu.op_class_0::SimdFloatReduceCmp            0      0.00%     65.40% # Class of committed instruction
system.cpu.op_class_0::SimdAes                      0      0.00%     65.40% # Class of committed instruction
system.cpu.op_class_0::SimdAesMix                   0      0.00%     65.40% # Class of committed instruction
system.cpu.op_class_0::SimdSha1Hash                 0      0.00%     65.40% # Class of committed instruction
system.cpu.op_class_0::SimdSha1Hash2                0      0.00%     65.40% # Class of committed instruction
system.cpu.op_class_0::SimdSha256Hash               0      0.00%     65.40% # Class of committed instruction
system.cpu.op_class_0::SimdSha256Hash2              0      0.00%     65.40% # Class of committed instruction
system.cpu.op_class_0::SimdShaSigma2                0      0.00%     65.40% # Class of committed instruction
system.cpu.op_class_0::SimdShaSigma3                0      0.00%     65.40% # Class of committed instruction
system.cpu.op_class_0::SimdPredAlu                  0      0.00%     65.40% # Class of committed instruction
system.cpu.op_class_0::MemRead                 230251      3.19%     68.59% # Class of committed instruction
system.cpu.op_class_0::MemWrite               2270931     31.41%    100.00% # Class of committed instruction
system.cpu.op_class_0::FloatMemRead                 0      0.00%    100.00% # Class of committed instruction
system.cpu.op_class_0::FloatMemWrite                0      0.00%    100.00% # Class of committed instruction
system.cpu.op_class_0::IprAccess                    0      0.00%    100.00% # Class of committed instruction
system.cpu.op_class_0::InstPrefetch                 0      0.00%    100.00% # Class of committed instruction
system.cpu.op_class_0::total                  7228960                       # Class of committed instruction
system.cpu.quiesceCycles                     22587018                       # Total number of cycles that CPU has spent quiesced or waiting for an interrupt
system.cpu.tickCycles                        16758294                       # Number of cycles that the object actually ticked
system.membus.snoop_filter.hit_multi_requests           50                       # Number of requests hitting in the snoop filter with multiple (>1) holders of the requested data.
system.membus.snoop_filter.hit_multi_snoops            0                       # Number of snoops hitting in the snoop filter with multiple (>1) holders of the requested data.
system.membus.snoop_filter.hit_single_requests         1834                       # Number of requests hitting in the snoop filter with a single holder of the requested data.
system.membus.snoop_filter.hit_single_snoops            0                       # Number of snoops hitting in the snoop filter with a single holder of the requested data.
system.membus.snoop_filter.tot_requests       2111200                       # Total number of requests made to the snoop filter.
system.membus.snoop_filter.tot_snoops               0                       # Total number of snoops made to the snoop filter.
system.bridge.pwrStateResidencyTicks::UNDEFINED  39429710000                       # Cumulative time (in ticks) in various power states
system.voltage_domain.voltage                       1                       # Voltage in Volts
system.iocache.pwrStateResidencyTicks::UNDEFINED  39429710000                       # Cumulative time (in ticks) in various power states
system.iocache.blocked_cycles::no_mshrs             0                       # number of cycles access was blocked
system.iocache.blocked_cycles::no_targets            0                       # number of cycles access was blocked
system.iocache.blocked::no_mshrs                    0                       # number of cycles access was blocked
system.iocache.blocked::no_targets                  0                       # number of cycles access was blocked
system.iocache.avg_blocked_cycles::no_mshrs          nan                       # average number of cycles each access was blocked
system.iocache.avg_blocked_cycles::no_targets          nan                       # average number of cycles each access was blocked
system.iocache.replacements                         0                       # number of replacements
system.iocache.tags.pwrStateResidencyTicks::UNDEFINED  39429710000                       # Cumulative time (in ticks) in various power states
system.iocache.tags.tagsinuse                       0                       # Cycle average of tags in use
system.iocache.tags.total_refs                      0                       # Total number of references to valid blocks.
system.iocache.tags.sampled_refs                    0                       # Sample count of references to valid blocks.
system.iocache.tags.avg_refs                      nan                       # Average number of references to valid blocks.
system.iocache.tags.warmup_cycle                    0                       # Cycle when the warmup percentage was hit.
system.iocache.tags.tag_accesses                    0                       # Number of tag accesses
system.iocache.tags.data_accesses                   0                       # Number of data accesses
system.membus.pwrStateResidencyTicks::UNDEFINED  39429710000                       # Cumulative time (in ticks) in various power states
system.membus.trans_dist::ReadReq              665013                       # Transaction distribution
system.membus.trans_dist::ReadResp             666440                       # Transaction distribution
system.membus.trans_dist::WriteReq             403128                       # Transaction distribution
system.membus.trans_dist::WriteResp            403128                       # Transaction distribution
system.membus.trans_dist::WritebackDirty         1053                       # Transaction distribution
system.membus.trans_dist::CleanEvict              768                       # Transaction distribution
system.membus.trans_dist::ReadExReq               553                       # Transaction distribution
system.membus.trans_dist::ReadExResp              554                       # Transaction distribution
system.membus.trans_dist::ReadCleanReq            180                       # Transaction distribution
system.membus.trans_dist::ReadSharedReq          1247                       # Transaction distribution
system.membus.trans_dist::CleanInvalidReq      1053696                       # Transaction distribution
system.membus.trans_dist::InvalidateReq       1053696                       # Transaction distribution
system.membus.pkt_count_system.cpu.icache.mem_side::system.realview.bootmem.port          380                       # Packet count per connected master and slave (bytes)
system.membus.pkt_count_system.cpu.icache.mem_side::total          380                       # Packet count per connected master and slave (bytes)
system.membus.pkt_count_system.cpu.dcache.mem_side::system.realview.bootmem.port          177                       # Packet count per connected master and slave (bytes)
system.membus.pkt_count_system.cpu.dcache.mem_side::system.realview.gic.pio         5844                       # Packet count per connected master and slave (bytes)
system.membus.pkt_count_system.cpu.dcache.mem_side::system.mem_ctrls.port      2112617                       # Packet count per connected master and slave (bytes)
system.membus.pkt_count_system.cpu.dcache.mem_side::system.acctest.mem2cls.slave        23046                       # Packet count per connected master and slave (bytes)
system.membus.pkt_count_system.cpu.dcache.mem_side::total      2141684                       # Packet count per connected master and slave (bytes)
system.membus.pkt_count_system.acctest.coherency_bus.master[0]::system.mem_ctrls.port      2107392                       # Packet count per connected master and slave (bytes)
system.membus.pkt_count_system.acctest.coherency_bus.master[0]::total      2107392                       # Packet count per connected master and slave (bytes)
system.membus.pkt_count::total                4249456                       # Packet count per connected master and slave (bytes)
system.membus.pkt_size_system.cpu.icache.mem_side::system.realview.bootmem.port        11520                       # Cumulative packet size per connected master and slave (bytes)
system.membus.pkt_size_system.cpu.icache.mem_side::total        11520                       # Cumulative packet size per connected master and slave (bytes)
system.membus.pkt_size_system.cpu.dcache.mem_side::system.realview.bootmem.port         4032                       # Cumulative packet size per connected master and slave (bytes)
system.membus.pkt_size_system.cpu.dcache.mem_side::system.realview.gic.pio        11688                       # Cumulative packet size per connected master and slave (bytes)
system.membus.pkt_size_system.cpu.dcache.mem_side::system.mem_ctrls.port       178624                       # Cumulative packet size per connected master and slave (bytes)
system.membus.pkt_size_system.cpu.dcache.mem_side::system.acctest.mem2cls.slave        32142                       # Cumulative packet size per connected master and slave (bytes)
system.membus.pkt_size_system.cpu.dcache.mem_side::total       226486                       # Cumulative packet size per connected master and slave (bytes)
system.membus.pkt_size_system.acctest.coherency_bus.master[0]::system.mem_ctrls.port     67436544                       # Cumulative packet size per connected master and slave (bytes)
system.membus.pkt_size_system.acctest.coherency_bus.master[0]::total     67436544                       # Cumulative packet size per connected master and slave (bytes)
system.membus.pkt_size::total                67674550                       # Cumulative packet size per connected master and slave (bytes)
system.membus.snoops                                0                       # Total snoops (count)
system.membus.snoopTraffic                          0                       # Total snoop traffic (bytes)
system.membus.snoop_fanout::samples           3178108                       # Request fanout histogram
system.membus.snoop_fanout::mean             0.000020                       # Request fanout histogram
system.membus.snoop_fanout::stdev            0.004452                       # Request fanout histogram
system.membus.snoop_fanout::underflows              0      0.00%      0.00% # Request fanout histogram
system.membus.snoop_fanout::0                 3178045    100.00%    100.00% # Request fanout histogram
system.membus.snoop_fanout::1                      63      0.00%    100.00% # Request fanout histogram
system.membus.snoop_fanout::2                       0      0.00%    100.00% # Request fanout histogram
system.membus.snoop_fanout::3                       0      0.00%    100.00% # Request fanout histogram
system.membus.snoop_fanout::4                       0      0.00%    100.00% # Request fanout histogram
system.membus.snoop_fanout::overflows               0      0.00%    100.00% # Request fanout histogram
system.membus.snoop_fanout::min_value               0                       # Request fanout histogram
system.membus.snoop_fanout::max_value               1                       # Request fanout histogram
system.membus.snoop_fanout::total             3178108                       # Request fanout histogram
system.membus.reqLayer6.occupancy          5431424030                       # Layer occupancy (ticks)
system.membus.reqLayer6.utilization              18.6                       # Layer utilization (%)
system.membus.reqLayer7.occupancy            29350000                       # Layer occupancy (ticks)
system.membus.reqLayer7.utilization               0.1                       # Layer utilization (%)
system.membus.reqLayer1.occupancy              490218                       # Layer occupancy (ticks)
system.membus.reqLayer1.utilization               0.0                       # Layer utilization (%)
system.membus.reqLayer2.occupancy             5733625                       # Layer occupancy (ticks)
system.membus.reqLayer2.utilization               0.0                       # Layer utilization (%)
system.membus.badaddr_responder.pwrStateResidencyTicks::UNDEFINED  39429710000                       # Cumulative time (in ticks) in various power states
system.membus.respLayer4.occupancy           26210120                       # Layer occupancy (ticks)
system.membus.respLayer4.utilization              0.1                       # Layer utilization (%)
system.membus.respLayer7.occupancy         4092564760                       # Layer occupancy (ticks)
system.membus.respLayer7.utilization             14.0                       # Layer utilization (%)
system.membus.respLayer3.occupancy             900750                       # Layer occupancy (ticks)
system.membus.respLayer3.utilization              0.0                       # Layer utilization (%)
system.acctest.harris_non_max0_spm.pwrStateResidencyTicks::UNDEFINED  39429710000                       # Cumulative time (in ticks) in various power states
system.acctest.elem_matrix2_spm.pwrStateResidencyTicks::UNDEFINED  39429710000                       # Cumulative time (in ticks) in various power states
system.acctest.elem_matrix3_spm.pwrStateResidencyTicks::UNDEFINED  39429710000                       # Cumulative time (in ticks) in various power states
system.acctest.local_bus.pwrStateResidencyTicks::UNDEFINED  39429710000                       # Cumulative time (in ticks) in various power states
system.acctest.local_bus.trans_dist::ReadReq       780288                       # Transaction distribution
system.acctest.local_bus.trans_dist::ReadResp       780288                       # Transaction distribution
system.acctest.local_bus.trans_dist::WriteReq      1338627                       # Transaction distribution
system.acctest.local_bus.trans_dist::WriteResp      1338627                       # Transaction distribution
system.acctest.local_bus.pkt_count_system.acctest.mem2cls.master::system.acctest.elem_matrix0.pio         8640                       # Packet count per connected master and slave (bytes)
system.acctest.local_bus.pkt_count_system.acctest.mem2cls.master::system.acctest.elem_matrix0_dma.pio        14406                       # Packet count per connected master and slave (bytes)
system.acctest.local_bus.pkt_count_system.acctest.mem2cls.master::total        23046                       # Packet count per connected master and slave (bytes)
system.acctest.local_bus.pkt_count_system.acctest.elem_matrix0_dma.dma::system.acctest.elem_matrix0_spm.port      4214784                       # Packet count per connected master and slave (bytes)
system.acctest.local_bus.pkt_count_system.acctest.elem_matrix0_dma.dma::total      4214784                       # Packet count per connected master and slave (bytes)
system.acctest.local_bus.pkt_count::total      4237830                       # Packet count per connected master and slave (bytes)
system.acctest.local_bus.pkt_size_system.acctest.mem2cls.master::system.acctest.elem_matrix0.pio         9504                       # Cumulative packet size per connected master and slave (bytes)
system.acctest.local_bus.pkt_size_system.acctest.mem2cls.master::system.acctest.elem_matrix0_dma.pio        22638                       # Cumulative packet size per connected master and slave (bytes)
system.acctest.local_bus.pkt_size_system.acctest.mem2cls.master::total        32142                       # Cumulative packet size per connected master and slave (bytes)
system.acctest.local_bus.pkt_size_system.acctest.elem_matrix0_dma.dma::system.acctest.elem_matrix0_spm.port     67436544                       # Cumulative packet size per connected master and slave (bytes)
system.acctest.local_bus.pkt_size_system.acctest.elem_matrix0_dma.dma::total     67436544                       # Cumulative packet size per connected master and slave (bytes)
system.acctest.local_bus.pkt_size::total     67468686                       # Cumulative packet size per connected master and slave (bytes)
system.acctest.local_bus.occupancy         7174671250                       # Network occupancy (ticks)
system.acctest.local_bus.utilization             24.6                       # Network utilization (%)
system.acctest.local_bus.averageQueuingDelay          713                       # Average queuing delay (ticks)
system.acctest.local_bus.tailQueuingDelay         6000                       # Tail queuing delay (ticks)
system.acctest.local_bus.reqLayer0.occupancy   5772032312                       # Layer occupancy (ticks)
system.acctest.local_bus.reqLayer0.utilization         19.8                       # Layer utilization (%)
system.acctest.local_bus.respLayer0.occupancy   3679491000                       # Layer occupancy (ticks)
system.acctest.local_bus.respLayer0.utilization         12.6                       # Layer utilization (%)
system.acctest.isp0.pwrStateResidencyTicks::UNDEFINED  39429710000                       # Cumulative time (in ticks) in various power states
system.acctest.edge_tracking0.pwrStateResidencyTicks::UNDEFINED  39429710000                       # Cumulative time (in ticks) in various power states
system.acctest.grayscale0_spm.pwrStateResidencyTicks::UNDEFINED  39429710000                       # Cumulative time (in ticks) in various power states
system.acctest.elem_matrix1_dma.pwrStateResidencyTicks::UNDEFINED  39429710000                       # Cumulative time (in ticks) in various power states
system.acctest.mem2cls.pwrStateResidencyTicks::UNDEFINED  39429710000                       # Cumulative time (in ticks) in various power states
system.acctest.isp0_dma.pwrStateResidencyTicks::UNDEFINED  39429710000                       # Cumulative time (in ticks) in various power states
system.acctest.grayscale0_dma.pwrStateResidencyTicks::UNDEFINED  39429710000                       # Cumulative time (in ticks) in various power states
system.acctest.convolution0.pwrStateResidencyTicks::UNDEFINED  39429710000                       # Cumulative time (in ticks) in various power states
system.acctest.convolution1.pwrStateResidencyTicks::UNDEFINED  39429710000                       # Cumulative time (in ticks) in various power states
system.acctest.isp0_spm.pwrStateResidencyTicks::UNDEFINED  39429710000                       # Cumulative time (in ticks) in various power states
system.acctest.coherency_bus.pwrStateResidencyTicks::UNDEFINED  39429710000                       # Cumulative time (in ticks) in various power states
system.acctest.coherency_bus.trans_dist::ReadReq       663552                       # Transaction distribution
system.acctest.coherency_bus.trans_dist::ReadResp       663552                       # Transaction distribution
system.acctest.coherency_bus.trans_dist::WriteReq       390144                       # Transaction distribution
system.acctest.coherency_bus.trans_dist::WriteResp       390144                       # Transaction distribution
system.acctest.coherency_bus.pkt_count_system.acctest.elem_matrix0_dma.dma::system.membus.slave[7]      2107392                       # Packet count per connected master and slave (bytes)
system.acctest.coherency_bus.pkt_count::total      2107392                       # Packet count per connected master and slave (bytes)
system.acctest.coherency_bus.pkt_size_system.acctest.elem_matrix0_dma.dma::system.membus.slave[7]     67436544                       # Cumulative packet size per connected master and slave (bytes)
system.acctest.coherency_bus.pkt_size::total     67436544                       # Cumulative packet size per connected master and slave (bytes)
system.acctest.coherency_bus.snoops                 0                       # Total snoops (count)
system.acctest.coherency_bus.snoopTraffic            0                       # Total snoop traffic (bytes)
system.acctest.coherency_bus.snoop_fanout::samples      1309201                       # Request fanout histogram
system.acctest.coherency_bus.snoop_fanout::mean            0                       # Request fanout histogram
system.acctest.coherency_bus.snoop_fanout::stdev            0                       # Request fanout histogram
system.acctest.coherency_bus.snoop_fanout::underflows            0      0.00%      0.00% # Request fanout histogram
system.acctest.coherency_bus.snoop_fanout::0      1309201    100.00%    100.00% # Request fanout histogram
system.acctest.coherency_bus.snoop_fanout::overflows            0      0.00%    100.00% # Request fanout histogram
system.acctest.coherency_bus.snoop_fanout::min_value            0                       # Request fanout histogram
system.acctest.coherency_bus.snoop_fanout::max_value            0                       # Request fanout histogram
system.acctest.coherency_bus.snoop_fanout::total      1309201                       # Request fanout histogram
system.acctest.coherency_bus.reqLayer0.occupancy   3072774250                       # Layer occupancy (ticks)
system.acctest.coherency_bus.reqLayer0.utilization         10.5                       # Layer utilization (%)
system.acctest.coherency_bus.respLayer0.occupancy   3707904000                       # Layer occupancy (ticks)
system.acctest.coherency_bus.respLayer0.utilization         12.7                       # Layer utilization (%)
system.acctest.convolution0_spm.pwrStateResidencyTicks::UNDEFINED  39429710000                       # Cumulative time (in ticks) in various power states
system.acctest.elem_matrix0_dma.pwrStateResidencyTicks::UNDEFINED  39429710000                       # Cumulative time (in ticks) in various power states
system.acctest.grayscale0.pwrStateResidencyTicks::UNDEFINED  39429710000                       # Cumulative time (in ticks) in various power states
system.acctest.canny_non_max0.pwrStateResidencyTicks::UNDEFINED  39429710000                       # Cumulative time (in ticks) in various power states
system.acctest.elem_matrix0_spm.pwrStateResidencyTicks::UNDEFINED  39429710000                       # Cumulative time (in ticks) in various power states
system.acctest.elem_matrix0_spm.bytes_read::.acctest.elem_matrix0.system.acctest.elem_matrix0     48758784                       # Number of bytes read from this memory
system.acctest.elem_matrix0_spm.bytes_read::.acctest.elem_matrix0_dma     24969216                       # Number of bytes read from this memory
system.acctest.elem_matrix0_spm.bytes_read::total     73728000                       # Number of bytes read from this memory
system.acctest.elem_matrix0_spm.bytes_written::.acctest.elem_matrix0.system.acctest.elem_matrix0     28311552                       # Number of bytes written to this memory
system.acctest.elem_matrix0_spm.bytes_written::.acctest.elem_matrix0_dma     42467328                       # Number of bytes written to this memory
system.acctest.elem_matrix0_spm.bytes_written::total     70778880                       # Number of bytes written to this memory
system.acctest.elem_matrix0_spm.num_reads::.acctest.elem_matrix0.system.acctest.elem_matrix0     12189696                       # Number of read requests responded to by this memory
system.acctest.elem_matrix0_spm.num_reads::.acctest.elem_matrix0_dma       780288                       # Number of read requests responded to by this memory
system.acctest.elem_matrix0_spm.num_reads::total     12969984                       # Number of read requests responded to by this memory
system.acctest.elem_matrix0_spm.num_writes::.acctest.elem_matrix0.system.acctest.elem_matrix0      7077888                       # Number of write requests responded to by this memory
system.acctest.elem_matrix0_spm.num_writes::.acctest.elem_matrix0_dma      1327104                       # Number of write requests responded to by this memory
system.acctest.elem_matrix0_spm.num_writes::total      8404992                       # Number of write requests responded to by this memory
system.acctest.elem_matrix0_spm.bw_read::.acctest.elem_matrix0.system.acctest.elem_matrix0   1671706512                       # Total read bandwidth from this memory (bytes/s)
system.acctest.elem_matrix0_spm.bw_read::.acctest.elem_matrix0_dma    856075512                       # Total read bandwidth from this memory (bytes/s)
system.acctest.elem_matrix0_spm.bw_read::total   2527782025                       # Total read bandwidth from this memory (bytes/s)
system.acctest.elem_matrix0_spm.bw_write::.acctest.elem_matrix0.system.acctest.elem_matrix0    970668298                       # Write bandwidth from this memory (bytes/s)
system.acctest.elem_matrix0_spm.bw_write::.acctest.elem_matrix0_dma   1456002446                       # Write bandwidth from this memory (bytes/s)
system.acctest.elem_matrix0_spm.bw_write::total   2426670744                       # Write bandwidth from this memory (bytes/s)
system.acctest.elem_matrix0_spm.bw_total::.acctest.elem_matrix0.system.acctest.elem_matrix0   2642374810                       # Total bandwidth to/from this memory (bytes/s)
system.acctest.elem_matrix0_spm.bw_total::.acctest.elem_matrix0_dma   2312077959                       # Total bandwidth to/from this memory (bytes/s)
system.acctest.elem_matrix0_spm.bw_total::total   4954452768                       # Total bandwidth to/from this memory (bytes/s)
system.acctest.convolution0_dma.pwrStateResidencyTicks::UNDEFINED  39429710000                       # Cumulative time (in ticks) in various power states
system.acctest.convolution1_spm.pwrStateResidencyTicks::UNDEFINED  39429710000                       # Cumulative time (in ticks) in various power states
system.acctest.elem_matrix3_dma.pwrStateResidencyTicks::UNDEFINED  39429710000                       # Cumulative time (in ticks) in various power states
system.acctest.edge_tracking0_spm.pwrStateResidencyTicks::UNDEFINED  39429710000                       # Cumulative time (in ticks) in various power states
system.acctest.canny_non_max0_spm.pwrStateResidencyTicks::UNDEFINED  39429710000                       # Cumulative time (in ticks) in various power states
system.acctest.canny_non_max0_dma.pwrStateResidencyTicks::UNDEFINED  39429710000                       # Cumulative time (in ticks) in various power states
system.acctest.convolution1_dma.pwrStateResidencyTicks::UNDEFINED  39429710000                       # Cumulative time (in ticks) in various power states
system.acctest.elem_matrix1_spm.pwrStateResidencyTicks::UNDEFINED  39429710000                       # Cumulative time (in ticks) in various power states
system.acctest.elem_matrix2_dma.pwrStateResidencyTicks::UNDEFINED  39429710000                       # Cumulative time (in ticks) in various power states
system.acctest.harris_non_max0.pwrStateResidencyTicks::UNDEFINED  39429710000                       # Cumulative time (in ticks) in various power states
system.acctest.edge_tracking0_dma.pwrStateResidencyTicks::UNDEFINED  39429710000                       # Cumulative time (in ticks) in various power states
system.acctest.harris_non_max0_dma.pwrStateResidencyTicks::UNDEFINED  39429710000                       # Cumulative time (in ticks) in various power states
system.acctest.elem_matrix1.pwrStateResidencyTicks::UNDEFINED  39429710000                       # Cumulative time (in ticks) in various power states
system.acctest.elem_matrix0.pwrStateResidencyTicks::UNDEFINED  39429710000                       # Cumulative time (in ticks) in various power states
system.acctest.elem_matrix3.pwrStateResidencyTicks::UNDEFINED  39429710000                       # Cumulative time (in ticks) in various power states
system.acctest.elem_matrix2.pwrStateResidencyTicks::UNDEFINED  39429710000                       # Cumulative time (in ticks) in various power states
system.clk_domain.clock                          1000                       # Clock period in ticks
system.realview.hdlcd.pwrStateResidencyTicks::UNDEFINED  39429710000                       # Cumulative time (in ticks) in various power states
system.realview.realview_io.pwrStateResidencyTicks::UNDEFINED  39429710000                       # Cumulative time (in ticks) in various power states
system.realview.bootmem.pwrStateResidencyTicks::UNDEFINED  39429710000                       # Cumulative time (in ticks) in various power states
system.realview.bootmem.bytes_read::.cpu.inst        11520                       # Number of bytes read from this memory
system.realview.bootmem.bytes_read::.cpu.data         4032                       # Number of bytes read from this memory
system.realview.bootmem.bytes_read::total        15552                       # Number of bytes read from this memory
system.realview.bootmem.bytes_inst_read::.cpu.inst        11520                       # Number of instructions bytes read from this memory
system.realview.bootmem.bytes_inst_read::total        11520                       # Number of instructions bytes read from this memory
system.realview.bootmem.num_reads::.cpu.inst          180                       # Number of read requests responded to by this memory
system.realview.bootmem.num_reads::.cpu.data           63                       # Number of read requests responded to by this memory
system.realview.bootmem.num_reads::total          243                       # Number of read requests responded to by this memory
system.realview.bootmem.bw_read::.cpu.inst       394966                       # Total read bandwidth from this memory (bytes/s)
system.realview.bootmem.bw_read::.cpu.data       138238                       # Total read bandwidth from this memory (bytes/s)
system.realview.bootmem.bw_read::total         533204                       # Total read bandwidth from this memory (bytes/s)
system.realview.bootmem.bw_inst_read::.cpu.inst       394966                       # Instruction read bandwidth from this memory (bytes/s)
system.realview.bootmem.bw_inst_read::total       394966                       # Instruction read bandwidth from this memory (bytes/s)
system.realview.bootmem.bw_total::.cpu.inst       394966                       # Total bandwidth to/from this memory (bytes/s)
system.realview.bootmem.bw_total::.cpu.data       138238                       # Total bandwidth to/from this memory (bytes/s)
system.realview.bootmem.bw_total::total        533204                       # Total bandwidth to/from this memory (bytes/s)
system.realview.pci_host.pwrStateResidencyTicks::UNDEFINED  39429710000                       # Cumulative time (in ticks) in various power states
system.realview.rtc.pwrStateResidencyTicks::UNDEFINED  39429710000                       # Cumulative time (in ticks) in various power states
system.realview.uart.pwrStateResidencyTicks::UNDEFINED  39429710000                       # Cumulative time (in ticks) in various power states
system.realview.gicv2m.pwrStateResidencyTicks::UNDEFINED  39429710000                       # Cumulative time (in ticks) in various power states
system.realview.mcc.osc_mcc.clock               20000                       # Clock period in ticks
system.realview.mcc.osc_peripheral.clock        41667                       # Clock period in ticks
system.realview.mcc.osc_clcd.clock              42105                       # Clock period in ticks
system.realview.mcc.osc_system_bus.clock        41667                       # Clock period in ticks
system.realview.dcc.osc_smb.clock               20000                       # Clock period in ticks
system.realview.dcc.osc_hsbm.clock              25000                       # Clock period in ticks
system.realview.dcc.osc_ddr.clock               25000                       # Clock period in ticks
system.realview.dcc.osc_cpu.clock               16667                       # Clock period in ticks
system.realview.dcc.osc_sys.clock               16667                       # Clock period in ticks
system.realview.dcc.osc_pxl.clock               42105                       # Clock period in ticks
system.realview.generic_timer.pwrStateResidencyTicks::UNDEFINED  39429710000                       # Cumulative time (in ticks) in various power states
system.realview.kmi1.pwrStateResidencyTicks::UNDEFINED  39429710000                       # Cumulative time (in ticks) in various power states
system.realview.kmi0.pwrStateResidencyTicks::UNDEFINED  39429710000                       # Cumulative time (in ticks) in various power states
system.realview.gic.pwrStateResidencyTicks::UNDEFINED  39429710000                       # Cumulative time (in ticks) in various power states
system.realview.clock24MHz.clock                41667                       # Clock period in ticks
system.realview.clock24MHz.voltage_domain.voltage     3.300000                       # Voltage in Volts
system.realview.energy_ctrl.pwrStateResidencyTicks::UNDEFINED  39429710000                       # Cumulative time (in ticks) in various power states
system.realview.vio1.pwrStateResidencyTicks::UNDEFINED  39429710000                       # Cumulative time (in ticks) in various power states
system.realview.vio0.pwrStateResidencyTicks::UNDEFINED  39429710000                       # Cumulative time (in ticks) in various power states
system.realview.vgic.pwrStateResidencyTicks::UNDEFINED  39429710000                       # Cumulative time (in ticks) in various power states
system.pci_ide.pwrStateResidencyTicks::UNDEFINED  39429710000                       # Cumulative time (in ticks) in various power states
system.cpu_voltage_domain.voltage                   1                       # Voltage in Volts
system.mem_ctrls.pwrStateResidencyTicks::UNDEFINED  39429710000                       # Cumulative time (in ticks) in various power states
system.mem_ctrls.bytes_read::.acctest.elem_matrix0_dma     42467328                       # Number of bytes read from this memory
system.mem_ctrls.bytes_read::.cpu.data         111232                       # Number of bytes read from this memory
system.mem_ctrls.bytes_read::total           42578560                       # Number of bytes read from this memory
system.mem_ctrls.bytes_written::.writebacks        67392                       # Number of bytes written to this memory
system.mem_ctrls.bytes_written::.acctest.elem_matrix0_dma     24969216                       # Number of bytes written to this memory
system.mem_ctrls.bytes_written::total        25036608                       # Number of bytes written to this memory
system.mem_ctrls.num_reads::.acctest.elem_matrix0_dma       663552                       # Number of read requests responded to by this memory
system.mem_ctrls.num_reads::.cpu.data            1738                       # Number of read requests responded to by this memory
system.mem_ctrls.num_reads::total              665290                       # Number of read requests responded to by this memory
system.mem_ctrls.num_writes::.writebacks         1053                       # Number of write requests responded to by this memory
system.mem_ctrls.num_writes::.acctest.elem_matrix0_dma       390144                       # Number of write requests responded to by this memory
system.mem_ctrls.num_writes::total             391197                       # Number of write requests responded to by this memory
system.mem_ctrls.bw_read::.acctest.elem_matrix0_dma   1456002446                       # Total read bandwidth from this memory (bytes/s)
system.mem_ctrls.bw_read::.cpu.data           3813616                       # Total read bandwidth from this memory (bytes/s)
system.mem_ctrls.bw_read::total            1459816062                       # Total read bandwidth from this memory (bytes/s)
system.mem_ctrls.bw_write::.writebacks        2310551                       # Write bandwidth from this memory (bytes/s)
system.mem_ctrls.bw_write::.acctest.elem_matrix0_dma    856075512                       # Write bandwidth from this memory (bytes/s)
system.mem_ctrls.bw_write::total            858386063                       # Write bandwidth from this memory (bytes/s)
system.mem_ctrls.bw_total::.writebacks        2310551                       # Total bandwidth to/from this memory (bytes/s)
system.mem_ctrls.bw_total::.acctest.elem_matrix0_dma   2312077959                       # Total bandwidth to/from this memory (bytes/s)
system.mem_ctrls.bw_total::.cpu.data          3813616                       # Total bandwidth to/from this memory (bytes/s)
system.mem_ctrls.bw_total::total           2318202125                       # Total bandwidth to/from this memory (bytes/s)
system.mem_ctrls.avgPriority_.writebacks::samples      1050.00                       # Average QoS priority value for accepted requests
system.mem_ctrls.avgPriority_.acctest.elem_matrix0_dma::samples   1052970.00                       # Average QoS priority value for accepted requests
system.mem_ctrls.avgPriority_.cpu.data::samples      1716.00                       # Average QoS priority value for accepted requests
system.mem_ctrls.priorityMinLatency      0.000000026250                       # per QoS priority minimum request to response latency (s)
system.mem_ctrls.priorityMaxLatency      0.000327758250                       # per QoS priority maximum request to response latency (s)
system.mem_ctrls.numReadWriteTurnArounds          386                       # Number of turnarounds from READ to WRITE
system.mem_ctrls.numWriteReadTurnArounds          385                       # Number of turnarounds from WRITE to READ
system.mem_ctrls.numStayReadState             1197740                       # Number of times bus staying in READ state
system.mem_ctrls.numStayWriteState             417157                       # Number of times bus staying in WRITE state
system.mem_ctrls.readReqs                      665289                       # Number of read requests accepted
system.mem_ctrls.writeReqs                     391197                       # Number of write requests accepted
system.mem_ctrls.readBursts                    665289                       # Number of DRAM read bursts, including those serviced by the write queue
system.mem_ctrls.writeBursts                   391197                       # Number of DRAM write bursts, including those merged in the write queue
system.mem_ctrls.servicedByWrQ                    747                       # Number of DRAM read bursts serviced by the write queue
system.mem_ctrls.mergedWrBursts                     3                       # Number of DRAM write bursts merged with an existing one
system.mem_ctrls.neitherReadNorWriteReqs            0                       # Number of requests that are neither read nor write
system.mem_ctrls.perBankRdBursts::0             41518                       # Per bank write bursts
system.mem_ctrls.perBankRdBursts::1             41538                       # Per bank write bursts
system.mem_ctrls.perBankRdBursts::2             41553                       # Per bank write bursts
system.mem_ctrls.perBankRdBursts::3             41523                       # Per bank write bursts
system.mem_ctrls.perBankRdBursts::4             41534                       # Per bank write bursts
system.mem_ctrls.perBankRdBursts::5             41524                       # Per bank write bursts
system.mem_ctrls.perBankRdBursts::6             41559                       # Per bank write bursts
system.mem_ctrls.perBankRdBursts::7             41536                       # Per bank write bursts
system.mem_ctrls.perBankRdBursts::8             41536                       # Per bank write bursts
system.mem_ctrls.perBankRdBursts::9             41525                       # Per bank write bursts
system.mem_ctrls.perBankRdBursts::10            41549                       # Per bank write bursts
system.mem_ctrls.perBankRdBursts::11            41525                       # Per bank write bursts
system.mem_ctrls.perBankRdBursts::12            41541                       # Per bank write bursts
system.mem_ctrls.perBankRdBursts::13            41529                       # Per bank write bursts
system.mem_ctrls.perBankRdBursts::14            41533                       # Per bank write bursts
system.mem_ctrls.perBankRdBursts::15            41520                       # Per bank write bursts
system.mem_ctrls.perBankWrBursts::0             24442                       # Per bank write bursts
system.mem_ctrls.perBankWrBursts::1             24451                       # Per bank write bursts
system.mem_ctrls.perBankWrBursts::2             24455                       # Per bank write bursts
system.mem_ctrls.perBankWrBursts::3             24447                       # Per bank write bursts
system.mem_ctrls.perBankWrBursts::4             24450                       # Per bank write bursts
system.mem_ctrls.perBankWrBursts::5             24446                       # Per bank write bursts
system.mem_ctrls.perBankWrBursts::6             24472                       # Per bank write bursts
system.mem_ctrls.perBankWrBursts::7             24449                       # Per bank write bursts
system.mem_ctrls.perBankWrBursts::8             24446                       # Per bank write bursts
system.mem_ctrls.perBankWrBursts::9             24446                       # Per bank write bursts
system.mem_ctrls.perBankWrBursts::10            24483                       # Per bank write bursts
system.mem_ctrls.perBankWrBursts::11            24450                       # Per bank write bursts
system.mem_ctrls.perBankWrBursts::12            24442                       # Per bank write bursts
system.mem_ctrls.perBankWrBursts::13            24426                       # Per bank write bursts
system.mem_ctrls.perBankWrBursts::14            24444                       # Per bank write bursts
system.mem_ctrls.perBankWrBursts::15            24446                       # Per bank write bursts
system.mem_ctrls.avgRdQLen                       3.34                       # Average read queue length when enqueuing
system.mem_ctrls.avgWrQLen                      20.52                       # Average write queue length when enqueuing
system.mem_ctrls.totQLat                  21438003660                       # Total ticks spent queuing
system.mem_ctrls.totBusLat                 3322715000                       # Total ticks spent in databus transfers
system.mem_ctrls.totMemAccLat             38882257410                       # Total ticks spent from burst creation until serviced by the DRAM
system.mem_ctrls.avgQLat                     32259.82                       # Average queueing delay per DRAM burst
system.mem_ctrls.avgBusLat                    5000.01                       # Average bus latency per DRAM burst
system.mem_ctrls.avgMemAccLat                58509.86                       # Average memory access latency per DRAM burst
system.mem_ctrls.numRdRetry                         0                       # Number of times read queue was full causing retry
system.mem_ctrls.numWrRetry                       588                       # Number of times write queue was full causing retry
system.mem_ctrls.readRowHits                   619604                       # Number of row buffer hits during reads
system.mem_ctrls.writeRowHits                  364063                       # Number of row buffer hits during writes
system.mem_ctrls.readRowHitRate                 93.24                       # Row buffer hit rate for reads
system.mem_ctrls.writeRowHitRate                93.06                       # Row buffer hit rate for writes
system.mem_ctrls.readPktSize::0                     0                       # Read request sizes (log2)
system.mem_ctrls.readPktSize::1                     0                       # Read request sizes (log2)
system.mem_ctrls.readPktSize::2                     0                       # Read request sizes (log2)
system.mem_ctrls.readPktSize::3                     0                       # Read request sizes (log2)
system.mem_ctrls.readPktSize::4                     0                       # Read request sizes (log2)
system.mem_ctrls.readPktSize::5                     0                       # Read request sizes (log2)
system.mem_ctrls.readPktSize::6                665289                       # Read request sizes (log2)
system.mem_ctrls.writePktSize::0                    0                       # Write request sizes (log2)
system.mem_ctrls.writePktSize::1                    0                       # Write request sizes (log2)
system.mem_ctrls.writePktSize::2                    0                       # Write request sizes (log2)
system.mem_ctrls.writePktSize::3                    0                       # Write request sizes (log2)
system.mem_ctrls.writePktSize::4                    0                       # Write request sizes (log2)
system.mem_ctrls.writePktSize::5                    0                       # Write request sizes (log2)
system.mem_ctrls.writePktSize::6               391197                       # Write request sizes (log2)
system.mem_ctrls.rdQLenPdf::0                    2396                       # What read queue length does an incoming req see
system.mem_ctrls.rdQLenPdf::1                    1009                       # What read queue length does an incoming req see
system.mem_ctrls.rdQLenPdf::2                    1751                       # What read queue length does an incoming req see
system.mem_ctrls.rdQLenPdf::3                    1982                       # What read queue length does an incoming req see
system.mem_ctrls.rdQLenPdf::4                  587898                       # What read queue length does an incoming req see
system.mem_ctrls.rdQLenPdf::5                   23323                       # What read queue length does an incoming req see
system.mem_ctrls.rdQLenPdf::6                   23049                       # What read queue length does an incoming req see
system.mem_ctrls.rdQLenPdf::7                   23133                       # What read queue length does an incoming req see
system.mem_ctrls.rdQLenPdf::8                       1                       # What read queue length does an incoming req see
system.mem_ctrls.rdQLenPdf::9                       0                       # What read queue length does an incoming req see
system.mem_ctrls.rdQLenPdf::10                      0                       # What read queue length does an incoming req see
system.mem_ctrls.rdQLenPdf::11                      0                       # What read queue length does an incoming req see
system.mem_ctrls.rdQLenPdf::12                      0                       # What read queue length does an incoming req see
system.mem_ctrls.rdQLenPdf::13                      0                       # What read queue length does an incoming req see
system.mem_ctrls.rdQLenPdf::14                      0                       # What read queue length does an incoming req see
system.mem_ctrls.rdQLenPdf::15                      0                       # What read queue length does an incoming req see
system.mem_ctrls.rdQLenPdf::16                      0                       # What read queue length does an incoming req see
system.mem_ctrls.rdQLenPdf::17                      0                       # What read queue length does an incoming req see
system.mem_ctrls.rdQLenPdf::18                      0                       # What read queue length does an incoming req see
system.mem_ctrls.rdQLenPdf::19                      0                       # What read queue length does an incoming req see
system.mem_ctrls.rdQLenPdf::20                      0                       # What read queue length does an incoming req see
system.mem_ctrls.rdQLenPdf::21                      0                       # What read queue length does an incoming req see
system.mem_ctrls.rdQLenPdf::22                      0                       # What read queue length does an incoming req see
system.mem_ctrls.rdQLenPdf::23                      0                       # What read queue length does an incoming req see
system.mem_ctrls.rdQLenPdf::24                      0                       # What read queue length does an incoming req see
system.mem_ctrls.rdQLenPdf::25                      0                       # What read queue length does an incoming req see
system.mem_ctrls.rdQLenPdf::26                      0                       # What read queue length does an incoming req see
system.mem_ctrls.rdQLenPdf::27                      0                       # What read queue length does an incoming req see
system.mem_ctrls.rdQLenPdf::28                      0                       # What read queue length does an incoming req see
system.mem_ctrls.rdQLenPdf::29                      0                       # What read queue length does an incoming req see
system.mem_ctrls.rdQLenPdf::30                      0                       # What read queue length does an incoming req see
system.mem_ctrls.rdQLenPdf::31                      0                       # What read queue length does an incoming req see
system.mem_ctrls.rdQLenPdf::32                      0                       # What read queue length does an incoming req see
system.mem_ctrls.rdQLenPdf::33                      0                       # What read queue length does an incoming req see
system.mem_ctrls.rdQLenPdf::34                      0                       # What read queue length does an incoming req see
system.mem_ctrls.rdQLenPdf::35                      0                       # What read queue length does an incoming req see
system.mem_ctrls.rdQLenPdf::36                      0                       # What read queue length does an incoming req see
system.mem_ctrls.rdQLenPdf::37                      0                       # What read queue length does an incoming req see
system.mem_ctrls.rdQLenPdf::38                      0                       # What read queue length does an incoming req see
system.mem_ctrls.rdQLenPdf::39                      0                       # What read queue length does an incoming req see
system.mem_ctrls.rdQLenPdf::40                      0                       # What read queue length does an incoming req see
system.mem_ctrls.rdQLenPdf::41                      0                       # What read queue length does an incoming req see
system.mem_ctrls.rdQLenPdf::42                      0                       # What read queue length does an incoming req see
system.mem_ctrls.rdQLenPdf::43                      0                       # What read queue length does an incoming req see
system.mem_ctrls.rdQLenPdf::44                      0                       # What read queue length does an incoming req see
system.mem_ctrls.rdQLenPdf::45                      0                       # What read queue length does an incoming req see
system.mem_ctrls.rdQLenPdf::46                      0                       # What read queue length does an incoming req see
system.mem_ctrls.rdQLenPdf::47                      0                       # What read queue length does an incoming req see
system.mem_ctrls.rdQLenPdf::48                      0                       # What read queue length does an incoming req see
system.mem_ctrls.rdQLenPdf::49                      0                       # What read queue length does an incoming req see
system.mem_ctrls.rdQLenPdf::50                      0                       # What read queue length does an incoming req see
system.mem_ctrls.rdQLenPdf::51                      0                       # What read queue length does an incoming req see
system.mem_ctrls.rdQLenPdf::52                      0                       # What read queue length does an incoming req see
system.mem_ctrls.rdQLenPdf::53                      0                       # What read queue length does an incoming req see
system.mem_ctrls.rdQLenPdf::54                      0                       # What read queue length does an incoming req see
system.mem_ctrls.rdQLenPdf::55                      0                       # What read queue length does an incoming req see
system.mem_ctrls.rdQLenPdf::56                      0                       # What read queue length does an incoming req see
system.mem_ctrls.rdQLenPdf::57                      0                       # What read queue length does an incoming req see
system.mem_ctrls.rdQLenPdf::58                      0                       # What read queue length does an incoming req see
system.mem_ctrls.rdQLenPdf::59                      0                       # What read queue length does an incoming req see
system.mem_ctrls.rdQLenPdf::60                      0                       # What read queue length does an incoming req see
system.mem_ctrls.rdQLenPdf::61                      0                       # What read queue length does an incoming req see
system.mem_ctrls.rdQLenPdf::62                      0                       # What read queue length does an incoming req see
system.mem_ctrls.rdQLenPdf::63                      0                       # What read queue length does an incoming req see
system.mem_ctrls.wrQLenPdf::0                       0                       # What write queue length does an incoming req see
system.mem_ctrls.wrQLenPdf::1                       0                       # What write queue length does an incoming req see
system.mem_ctrls.wrQLenPdf::2                       0                       # What write queue length does an incoming req see
system.mem_ctrls.wrQLenPdf::3                       0                       # What write queue length does an incoming req see
system.mem_ctrls.wrQLenPdf::4                       0                       # What write queue length does an incoming req see
system.mem_ctrls.wrQLenPdf::5                       0                       # What write queue length does an incoming req see
system.mem_ctrls.wrQLenPdf::6                       0                       # What write queue length does an incoming req see
system.mem_ctrls.wrQLenPdf::7                       0                       # What write queue length does an incoming req see
system.mem_ctrls.wrQLenPdf::8                       0                       # What write queue length does an incoming req see
system.mem_ctrls.wrQLenPdf::9                       0                       # What write queue length does an incoming req see
system.mem_ctrls.wrQLenPdf::10                      0                       # What write queue length does an incoming req see
system.mem_ctrls.wrQLenPdf::11                      0                       # What write queue length does an incoming req see
system.mem_ctrls.wrQLenPdf::12                      0                       # What write queue length does an incoming req see
system.mem_ctrls.wrQLenPdf::13                      0                       # What write queue length does an incoming req see
system.mem_ctrls.wrQLenPdf::14                      0                       # What write queue length does an incoming req see
system.mem_ctrls.wrQLenPdf::15                    371                       # What write queue length does an incoming req see
[...]
system.cpu.icache.tags.sampled_refs               338                       # Sample count of references to valid blocks.
system.cpu.icache.tags.avg_refs          24315.431953                       # Average number of references to valid blocks.
system.cpu.icache.tags.warmup_cycle                 0                       # Cycle when the warmup percentage was hit.
system.cpu.icache.tags.occ_blocks::.cpu.inst   313.877446                       # Average occupied blocks per requestor
system.cpu.icache.tags.occ_percent::.cpu.inst     0.613042                       # Average percentage of cache occupancy
system.cpu.icache.tags.occ_percent::total     0.613042                       # Average percentage of cache occupancy
system.cpu.icache.tags.occ_task_id_blocks::1024          318                       # Occupied blocks per task id
system.cpu.icache.tags.age_task_id_blocks_1024::0            3                       # Occupied blocks per task id
system.cpu.icache.tags.age_task_id_blocks_1024::1            1                       # Occupied blocks per task id
system.cpu.icache.tags.age_task_id_blocks_1024::4          314                       # Occupied blocks per task id
system.cpu.icache.tags.occ_task_id_percent::1024     0.621094                       # Percentage of cache occupancy per task id
system.cpu.icache.tags.tag_accesses           7661596                       # Number of tag accesses
system.cpu.icache.tags.data_accesses          7661596                       # Number of data accesses
system.cpu.dtb.walker.pwrStateResidencyTicks::UNDEFINED  39429874375                       # Cumulative time (in ticks) in various power states
system.cpu.dtb.stage2_mmu.stage2_tlb.walker.pwrStateResidencyTicks::UNDEFINED  39429874375                       # Cumulative time (in ticks) in various power states
system.cpu.dcache.pwrStateResidencyTicks::UNDEFINED  39429874375                       # Cumulative time (in ticks) in various power states
system.cpu.dcache.demand_hits::.cpu.data       377469                       # number of demand (read+write) hits
system.cpu.dcache.demand_hits::total           377469                       # number of demand (read+write) hits
system.cpu.dcache.overall_hits::.cpu.data       377469                       # number of overall hits
system.cpu.dcache.overall_hits::total          377469                       # number of overall hits
system.cpu.dcache.demand_misses::.cpu.data         2276                       # number of demand (read+write) misses
system.cpu.dcache.demand_misses::total           2276                       # number of demand (read+write) misses
system.cpu.dcache.overall_misses::.cpu.data         2276                       # number of overall misses
system.cpu.dcache.overall_misses::total          2276                       # number of overall misses
system.cpu.dcache.demand_miss_latency::.cpu.data    168095500                       # number of demand (read+write) miss cycles
system.cpu.dcache.demand_miss_latency::total    168095500                       # number of demand (read+write) miss cycles
system.cpu.dcache.overall_miss_latency::.cpu.data    168095500                       # number of overall miss cycles
system.cpu.dcache.overall_miss_latency::total    168095500                       # number of overall miss cycles
system.cpu.dcache.demand_accesses::.cpu.data       379745                       # number of demand (read+write) accesses
system.cpu.dcache.demand_accesses::total       379745                       # number of demand (read+write) accesses
system.cpu.dcache.overall_accesses::.cpu.data       379745                       # number of overall (read+write) accesses
system.cpu.dcache.overall_accesses::total       379745                       # number of overall (read+write) accesses
system.cpu.dcache.demand_miss_rate::.cpu.data     0.005993                       # miss rate for demand accesses
system.cpu.dcache.demand_miss_rate::total     0.005993                       # miss rate for demand accesses
system.cpu.dcache.overall_miss_rate::.cpu.data     0.005993                       # miss rate for overall accesses
system.cpu.dcache.overall_miss_rate::total     0.005993                       # miss rate for overall accesses
system.cpu.dcache.demand_avg_miss_latency::.cpu.data 73855.667838                       # average overall miss latency
system.cpu.dcache.demand_avg_miss_latency::total 73855.667838                       # average overall miss latency
system.cpu.dcache.overall_avg_miss_latency::.cpu.data 73855.667838                       # average overall miss latency
system.cpu.dcache.overall_avg_miss_latency::total 73855.667838                       # average overall miss latency
system.cpu.dcache.blocked_cycles::no_mshrs            0                       # number of cycles access was blocked
system.cpu.dcache.blocked_cycles::no_targets            0                       # number of cycles access was blocked
system.cpu.dcache.blocked::no_mshrs                 0                       # number of cycles access was blocked
system.cpu.dcache.blocked::no_targets               0                       # number of cycles access was blocked
system.cpu.dcache.avg_blocked_cycles::no_mshrs          nan                       # average number of cycles each access was blocked
system.cpu.dcache.avg_blocked_cycles::no_targets          nan                       # average number of cycles each access was blocked
system.cpu.dcache.writebacks::.writebacks         1054                       # number of writebacks
system.cpu.dcache.writebacks::total              1054                       # number of writebacks
system.cpu.dcache.demand_mshr_hits::.cpu.data          474                       # number of demand (read+write) MSHR hits
system.cpu.dcache.demand_mshr_hits::total          474                       # number of demand (read+write) MSHR hits
system.cpu.dcache.overall_mshr_hits::.cpu.data          474                       # number of overall MSHR hits
system.cpu.dcache.overall_mshr_hits::total          474                       # number of overall MSHR hits
system.cpu.dcache.demand_mshr_misses::.cpu.data         1802                       # number of demand (read+write) MSHR misses
system.cpu.dcache.demand_mshr_misses::total         1802                       # number of demand (read+write) MSHR misses
system.cpu.dcache.overall_mshr_misses::.cpu.data         1802                       # number of overall MSHR misses
system.cpu.dcache.overall_mshr_misses::total         1802                       # number of overall MSHR misses
system.cpu.dcache.overall_mshr_uncacheable_misses::.cpu.data        14445                       # number of overall MSHR uncacheable misses
system.cpu.dcache.overall_mshr_uncacheable_misses::total        14445                       # number of overall MSHR uncacheable misses
system.cpu.dcache.demand_mshr_miss_latency::.cpu.data    133124500                       # number of demand (read+write) MSHR miss cycles
system.cpu.dcache.demand_mshr_miss_latency::total    133124500                       # number of demand (read+write) MSHR miss cycles
system.cpu.dcache.overall_mshr_miss_latency::.cpu.data    133124500                       # number of overall MSHR miss cycles
system.cpu.dcache.overall_mshr_miss_latency::total    133124500                       # number of overall MSHR miss cycles
system.cpu.dcache.overall_mshr_uncacheable_latency::.cpu.data     31776875                       # number of overall MSHR uncacheable cycles
system.cpu.dcache.overall_mshr_uncacheable_latency::total     31776875                       # number of overall MSHR uncacheable cycles
system.cpu.dcache.demand_mshr_miss_rate::.cpu.data     0.004745                       # mshr miss rate for demand accesses
system.cpu.dcache.demand_mshr_miss_rate::total     0.004745                       # mshr miss rate for demand accesses
system.cpu.dcache.overall_mshr_miss_rate::.cpu.data     0.004745                       # mshr miss rate for overall accesses
system.cpu.dcache.overall_mshr_miss_rate::total     0.004745                       # mshr miss rate for overall accesses
system.cpu.dcache.demand_avg_mshr_miss_latency::.cpu.data 73875.971143                       # average overall mshr miss latency
system.cpu.dcache.demand_avg_mshr_miss_latency::total 73875.971143                       # average overall mshr miss latency
system.cpu.dcache.overall_avg_mshr_miss_latency::.cpu.data 73875.971143                       # average overall mshr miss latency
system.cpu.dcache.overall_avg_mshr_miss_latency::total 73875.971143                       # average overall mshr miss latency
system.cpu.dcache.overall_avg_mshr_uncacheable_latency::.cpu.data  2199.852890                       # average overall mshr uncacheable latency
system.cpu.dcache.overall_avg_mshr_uncacheable_latency::total  2199.852890                       # average overall mshr uncacheable latency
system.cpu.dcache.replacements                   1803                       # number of replacements
system.cpu.dcache.ReadReq_hits::.cpu.data       228586                       # number of ReadReq hits
system.cpu.dcache.ReadReq_hits::total          228586                       # number of ReadReq hits
system.cpu.dcache.ReadReq_misses::.cpu.data         1249                       # number of ReadReq misses
system.cpu.dcache.ReadReq_misses::total          1249                       # number of ReadReq misses
system.cpu.dcache.ReadReq_miss_latency::.cpu.data     99433750                       # number of ReadReq miss cycles
system.cpu.dcache.ReadReq_miss_latency::total     99433750                       # number of ReadReq miss cycles
system.cpu.dcache.ReadReq_accesses::.cpu.data       229835                       # number of ReadReq accesses(hits+misses)
system.cpu.dcache.ReadReq_accesses::total       229835                       # number of ReadReq accesses(hits+misses)
system.cpu.dcache.ReadReq_miss_rate::.cpu.data     0.005434                       # miss rate for ReadReq accesses
system.cpu.dcache.ReadReq_miss_rate::total     0.005434                       # miss rate for ReadReq accesses
system.cpu.dcache.ReadReq_avg_miss_latency::.cpu.data 79610.688551                       # average ReadReq miss latency
system.cpu.dcache.ReadReq_avg_miss_latency::total 79610.688551                       # average ReadReq miss latency
system.cpu.dcache.ReadReq_mshr_misses::.cpu.data         1249                       # number of ReadReq MSHR misses
system.cpu.dcache.ReadReq_mshr_misses::total         1249                       # number of ReadReq MSHR misses
system.cpu.dcache.ReadReq_mshr_uncacheable::.cpu.data         1461                       # number of ReadReq MSHR uncacheable
system.cpu.dcache.ReadReq_mshr_uncacheable::total         1461                       # number of ReadReq MSHR uncacheable
system.cpu.dcache.ReadReq_mshr_miss_latency::.cpu.data     97581750                       # number of ReadReq MSHR miss cycles
system.cpu.dcache.ReadReq_mshr_miss_latency::total     97581750                       # number of ReadReq MSHR miss cycles
system.cpu.dcache.ReadReq_mshr_uncacheable_latency::.cpu.data     31776875                       # number of ReadReq MSHR uncacheable cycles
system.cpu.dcache.ReadReq_mshr_uncacheable_latency::total     31776875                       # number of ReadReq MSHR uncacheable cycles
system.cpu.dcache.ReadReq_mshr_miss_rate::.cpu.data     0.005434                       # mshr miss rate for ReadReq accesses
system.cpu.dcache.ReadReq_mshr_miss_rate::total     0.005434                       # mshr miss rate for ReadReq accesses
system.cpu.dcache.ReadReq_avg_mshr_miss_latency::.cpu.data 78127.902322                       # average ReadReq mshr miss latency
system.cpu.dcache.ReadReq_avg_mshr_miss_latency::total 78127.902322                       # average ReadReq mshr miss latency
system.cpu.dcache.ReadReq_avg_mshr_uncacheable_latency::.cpu.data 21750.085558                       # average ReadReq mshr uncacheable latency
system.cpu.dcache.ReadReq_avg_mshr_uncacheable_latency::total 21750.085558                       # average ReadReq mshr uncacheable latency
system.cpu.dcache.WriteReq_hits::.cpu.data       148883                       # number of WriteReq hits
system.cpu.dcache.WriteReq_hits::total         148883                       # number of WriteReq hits
system.cpu.dcache.WriteReq_misses::.cpu.data         1027                       # number of WriteReq misses
system.cpu.dcache.WriteReq_misses::total         1027                       # number of WriteReq misses
system.cpu.dcache.WriteReq_miss_latency::.cpu.data     68661750                       # number of WriteReq miss cycles
system.cpu.dcache.WriteReq_miss_latency::total     68661750                       # number of WriteReq miss cycles
system.cpu.dcache.WriteReq_accesses::.cpu.data       149910                       # number of WriteReq accesses(hits+misses)
system.cpu.dcache.WriteReq_accesses::total       149910                       # number of WriteReq accesses(hits+misses)
system.cpu.dcache.WriteReq_miss_rate::.cpu.data     0.006851                       # miss rate for WriteReq accesses
system.cpu.dcache.WriteReq_miss_rate::total     0.006851                       # miss rate for WriteReq accesses
system.cpu.dcache.WriteReq_avg_miss_latency::.cpu.data 66856.621227                       # average WriteReq miss latency
system.cpu.dcache.WriteReq_avg_miss_latency::total 66856.621227                       # average WriteReq miss latency
system.cpu.dcache.WriteReq_mshr_hits::.cpu.data          474                       # number of WriteReq MSHR hits
system.cpu.dcache.WriteReq_mshr_hits::total          474                       # number of WriteReq MSHR hits
system.cpu.dcache.WriteReq_mshr_misses::.cpu.data          553                       # number of WriteReq MSHR misses
system.cpu.dcache.WriteReq_mshr_misses::total          553                       # number of WriteReq MSHR misses
system.cpu.dcache.WriteReq_mshr_uncacheable::.cpu.data        12984                       # number of WriteReq MSHR uncacheable
system.cpu.dcache.WriteReq_mshr_uncacheable::total        12984                       # number of WriteReq MSHR uncacheable
system.cpu.dcache.WriteReq_mshr_miss_latency::.cpu.data     35542750                       # number of WriteReq MSHR miss cycles
system.cpu.dcache.WriteReq_mshr_miss_latency::total     35542750                       # number of WriteReq MSHR miss cycles
system.cpu.dcache.WriteReq_mshr_miss_rate::.cpu.data     0.003689                       # mshr miss rate for WriteReq accesses
system.cpu.dcache.WriteReq_mshr_miss_rate::total     0.003689                       # mshr miss rate for WriteReq accesses
system.cpu.dcache.WriteReq_avg_mshr_miss_latency::.cpu.data 64272.603978                       # average WriteReq mshr miss latency
system.cpu.dcache.WriteReq_avg_mshr_miss_latency::total 64272.603978                       # average WriteReq mshr miss latency
system.cpu.dcache.CleanInvalidReq_mshr_misses::.cpu.data      1053696                       # number of CleanInvalidReq MSHR misses
system.cpu.dcache.CleanInvalidReq_mshr_misses::total      1053696                       # number of CleanInvalidReq MSHR misses
system.cpu.dcache.CleanInvalidReq_mshr_miss_latency::.cpu.data  10967135875                       # number of CleanInvalidReq MSHR miss cycles
system.cpu.dcache.CleanInvalidReq_mshr_miss_latency::total  10967135875                       # number of CleanInvalidReq MSHR miss cycles
system.cpu.dcache.CleanInvalidReq_mshr_miss_rate::.cpu.data          inf                       # mshr miss rate for CleanInvalidReq accesses
system.cpu.dcache.CleanInvalidReq_mshr_miss_rate::total          inf                       # mshr miss rate for CleanInvalidReq accesses
system.cpu.dcache.CleanInvalidReq_avg_mshr_miss_latency::.cpu.data 10408.254255                       # average CleanInvalidReq mshr miss latency
system.cpu.dcache.CleanInvalidReq_avg_mshr_miss_latency::total 10408.254255                       # average CleanInvalidReq mshr miss latency
system.cpu.dcache.InvalidateReq_mshr_hits::.cpu.data       245440                       # number of InvalidateReq MSHR hits
system.cpu.dcache.InvalidateReq_mshr_hits::total       245440                       # number of InvalidateReq MSHR hits
system.cpu.dcache.InvalidateReq_mshr_misses::.cpu.data       808256                       # number of InvalidateReq MSHR misses
system.cpu.dcache.InvalidateReq_mshr_misses::total       808256                       # number of InvalidateReq MSHR misses
system.cpu.dcache.InvalidateReq_mshr_miss_latency::.cpu.data  10629297905                       # number of InvalidateReq MSHR miss cycles
system.cpu.dcache.InvalidateReq_mshr_miss_latency::total  10629297905                       # number of InvalidateReq MSHR miss cycles
system.cpu.dcache.InvalidateReq_mshr_miss_rate::.cpu.data          inf                       # mshr miss rate for InvalidateReq accesses
system.cpu.dcache.InvalidateReq_mshr_miss_rate::total          inf                       # mshr miss rate for InvalidateReq accesses
system.cpu.dcache.InvalidateReq_avg_mshr_miss_latency::.cpu.data 13150.905041                       # average InvalidateReq mshr miss latency
system.cpu.dcache.InvalidateReq_avg_mshr_miss_latency::total 13150.905041                       # average InvalidateReq mshr miss latency
system.cpu.dcache.tags.pwrStateResidencyTicks::UNDEFINED  39429874375                       # Cumulative time (in ticks) in various power states
system.cpu.dcache.tags.tagsinuse                  512                       # Cycle average of tags in use
system.cpu.dcache.tags.total_refs              382808                       # Total number of references to valid blocks.
system.cpu.dcache.tags.sampled_refs              2315                       # Sample count of references to valid blocks.
system.cpu.dcache.tags.avg_refs            165.359827                       # Average number of references to valid blocks.
system.cpu.dcache.tags.warmup_cycle                 0                       # Cycle when the warmup percentage was hit.
system.cpu.dcache.tags.occ_blocks::.cpu.data          512                       # Average occupied blocks per requestor
system.cpu.dcache.tags.occ_percent::.cpu.data            1                       # Average percentage of cache occupancy
system.cpu.dcache.tags.occ_percent::total            1                       # Average percentage of cache occupancy
system.cpu.dcache.tags.occ_task_id_blocks::1024          512                       # Occupied blocks per task id
system.cpu.dcache.tags.age_task_id_blocks_1024::0            3                       # Occupied blocks per task id
system.cpu.dcache.tags.age_task_id_blocks_1024::1            5                       # Occupied blocks per task id
system.cpu.dcache.tags.age_task_id_blocks_1024::2           37                       # Occupied blocks per task id
system.cpu.dcache.tags.age_task_id_blocks_1024::3          427                       # Occupied blocks per task id
system.cpu.dcache.tags.age_task_id_blocks_1024::4           40                       # Occupied blocks per task id
system.cpu.dcache.tags.occ_task_id_percent::1024            1                       # Percentage of cache occupancy per task id
system.cpu.dcache.tags.tag_accesses           9950351                       # Number of tag accesses
system.cpu.dcache.tags.data_accesses          9950351                       # Number of data accesses
system.cpu.itb.walker.pwrStateResidencyTicks::UNDEFINED  39429874375                       # Cumulative time (in ticks) in various power states
system.cpu.itb.stage2_mmu.stage2_tlb.walker.pwrStateResidencyTicks::UNDEFINED  39429874375                       # Cumulative time (in ticks) in various power states

---------- End Simulation Statistics   ----------
