
---------- Begin Simulation Statistics ----------
final_tick                               104779452500                       # Number of ticks from beginning of simulation (restored from checkpoints and never reset)
host_inst_rate                                    559                       # Simulator instruction rate (inst/s)
host_mem_usage                               26405856                       # Number of bytes of host memory used
host_op_rate                                      574                       # Simulator op (including micro ops) rate (op/s)
host_seconds                                126321.63                       # Real time elapsed on the host
host_tick_rate                                 390572                       # Simulator tick rate (ticks/s)
sim_freq                                 1000000000000                       # Frequency of simulated ticks
sim_insts                                    70657472                       # Number of instructions simulated
sim_ops                                      72561642                       # Number of ops (including micro ops) simulated
sim_seconds                                  0.049338                       # Number of seconds simulated
sim_ticks                                 49337740000                       # Number of ticks simulated
system.acctest.coherency_bus.snoop_filter.hit_multi_requests            0                       # Number of requests hitting in the snoop filter with multiple (>1) holders of the requested data.
system.acctest.coherency_bus.snoop_filter.hit_multi_snoops            0                       # Number of snoops hitting in the snoop filter with multiple (>1) holders of the requested data.
system.acctest.coherency_bus.snoop_filter.hit_single_requests            0                       # Number of requests hitting in the snoop filter with a single holder of the requested data.
system.acctest.coherency_bus.snoop_filter.hit_single_snoops            0                       # Number of snoops hitting in the snoop filter with a single holder of the requested data.
system.acctest.coherency_bus.snoop_filter.tot_requests            0                       # Total number of requests made to the snoop filter.
system.acctest.coherency_bus.snoop_filter.tot_snoops            0                       # Total number of snoops made to the snoop filter.
system.cf0.dma_read_bytes                           0                       # Number of bytes transfered via DMA reads (not PRD).
system.cf0.dma_read_full_pages                      0                       # Number of full page size DMA reads (not PRD).
system.cf0.dma_read_txs                             0                       # Number of DMA read transactions (not PRD).
system.cf0.dma_write_bytes                          0                       # Number of bytes transfered via DMA writes.
system.cf0.dma_write_full_pages                     0                       # Number of full page size DMA writes.
system.cf0.dma_write_txs                            0                       # Number of DMA write transactions.
system.cpu.branchPred.BTBCorrect                    0                       # Number of correct BTB predictions (this stat may not work properly.
system.cpu.branchPred.BTBHitPct             78.473681                       # BTB Hit Percentage
system.cpu.branchPred.BTBHits                  347392                       # Number of BTB hits
system.cpu.branchPred.BTBLookups               442686                       # Number of BTB lookups
system.cpu.branchPred.RASInCorrect               4502                       # Number of incorrect RAS predictions.
system.cpu.branchPred.condIncorrect             27344                       # Number of conditional branches incorrect
system.cpu.branchPred.condPredicted            458492                       # Number of conditional branches predicted
system.cpu.branchPred.indirectHits              50087                       # Number of indirect target hits.
system.cpu.branchPred.indirectLookups           60498                       # Number of indirect predictor lookups.
system.cpu.branchPred.indirectMisses            10411                       # Number of indirect misses.
system.cpu.branchPred.lookups                  785299                       # Number of BP lookups
system.cpu.branchPred.usedRAS                  127036                       # Number of times the RAS was used to get a target.
system.cpu.branchPredindirectMispredicted         6201                       # Number of mispredicted indirect branches.
system.cpu.committedInsts                     5231876                       # Number of instructions committed
system.cpu.committedOps                       5630235                       # Number of ops (including micro ops) committed
system.cpu.cpi                               2.608980                       # CPI: cycles per instruction
system.cpu.discardedOps                         80601                       # Number of ops (including micro ops) which were discarded before commit
system.cpu.dtb.accesses                             0                       # DTB accesses
system.cpu.dtb.align_faults                         0                       # Number of TLB faults due to alignment restrictions
system.cpu.dtb.domain_faults                        0                       # Number of TLB faults due to domain restrictions
system.cpu.dtb.flush_entries                        0                       # Number of entries that have been flushed from TLB
system.cpu.dtb.flush_tlb                            0                       # Number of times complete TLB was flushed
system.cpu.dtb.flush_tlb_asid                       0                       # Number of times TLB was flushed by ASID
system.cpu.dtb.flush_tlb_mva                        0                       # Number of times TLB was flushed by MVA
system.cpu.dtb.flush_tlb_mva_asid                   0                       # Number of times TLB was flushed by MVA & ASID
system.cpu.dtb.hits                                 0                       # DTB hits
system.cpu.dtb.inst_accesses                        0                       # ITB inst accesses
system.cpu.dtb.inst_hits                            0                       # ITB inst hits
system.cpu.dtb.inst_misses                          0                       # ITB inst misses
system.cpu.dtb.misses                               0                       # DTB misses
system.cpu.dtb.perms_faults                         0                       # Number of TLB faults due to permissions restrictions
system.cpu.dtb.prefetch_faults                      0                       # Number of TLB faults due to prefetch
system.cpu.dtb.read_accesses                        0                       # DTB read accesses
system.cpu.dtb.read_hits                            0                       # DTB read hits
system.cpu.dtb.read_misses                          0                       # DTB read misses
system.cpu.dtb.stage2_mmu.stage2_tlb.accesses            0                       # DTB accesses
system.cpu.dtb.stage2_mmu.stage2_tlb.align_faults            0                       # Number of TLB faults due to alignment restrictions
system.cpu.dtb.stage2_mmu.stage2_tlb.domain_faults            0                       # Number of TLB faults due to domain restrictions
system.cpu.dtb.stage2_mmu.stage2_tlb.flush_entries            0                       # Number of entries that have been flushed from TLB
system.cpu.dtb.stage2_mmu.stage2_tlb.flush_tlb            0                       # Number of times complete TLB was flushed
system.cpu.dtb.stage2_mmu.stage2_tlb.flush_tlb_asid            0                       # Number of times TLB was flushed by ASID
system.cpu.dtb.stage2_mmu.stage2_tlb.flush_tlb_mva            0                       # Number of times TLB was flushed by MVA
system.cpu.dtb.stage2_mmu.stage2_tlb.flush_tlb_mva_asid            0                       # Number of times TLB was flushed by MVA & ASID
system.cpu.dtb.stage2_mmu.stage2_tlb.hits            0                       # DTB hits
system.cpu.dtb.stage2_mmu.stage2_tlb.inst_accesses            0                       # ITB inst accesses
system.cpu.dtb.stage2_mmu.stage2_tlb.inst_hits            0                       # ITB inst hits
system.cpu.dtb.stage2_mmu.stage2_tlb.inst_misses            0                       # ITB inst misses
system.cpu.dtb.stage2_mmu.stage2_tlb.misses            0                       # DTB misses
system.cpu.dtb.stage2_mmu.stage2_tlb.perms_faults            0                       # Number of TLB faults due to permissions restrictions
system.cpu.dtb.stage2_mmu.stage2_tlb.prefetch_faults            0                       # Number of TLB faults due to prefetch
system.cpu.dtb.stage2_mmu.stage2_tlb.read_accesses            0                       # DTB read accesses
system.cpu.dtb.stage2_mmu.stage2_tlb.read_hits            0                       # DTB read hits
system.cpu.dtb.stage2_mmu.stage2_tlb.read_misses            0                       # DTB read misses
system.cpu.dtb.stage2_mmu.stage2_tlb.walker.walkRequestOrigin_Requested::Data            0                       # Table walker requests started/completed, data/inst
system.cpu.dtb.stage2_mmu.stage2_tlb.walker.walkRequestOrigin_Requested::Inst            0                       # Table walker requests started/completed, data/inst
system.cpu.dtb.stage2_mmu.stage2_tlb.walker.walkRequestOrigin_Requested::total            0                       # Table walker requests started/completed, data/inst
system.cpu.dtb.stage2_mmu.stage2_tlb.walker.walkRequestOrigin_Completed::Data            0                       # Table walker requests started/completed, data/inst
system.cpu.dtb.stage2_mmu.stage2_tlb.walker.walkRequestOrigin_Completed::Inst            0                       # Table walker requests started/completed, data/inst
system.cpu.dtb.stage2_mmu.stage2_tlb.walker.walkRequestOrigin_Completed::total            0                       # Table walker requests started/completed, data/inst
system.cpu.dtb.stage2_mmu.stage2_tlb.walker.walkRequestOrigin::total            0                       # Table walker requests started/completed, data/inst
system.cpu.dtb.stage2_mmu.stage2_tlb.walker.walks            0                       # Table walker walks requested
system.cpu.dtb.stage2_mmu.stage2_tlb.write_accesses            0                       # DTB write accesses
system.cpu.dtb.stage2_mmu.stage2_tlb.write_hits            0                       # DTB write hits
system.cpu.dtb.stage2_mmu.stage2_tlb.write_misses            0                       # DTB write misses
system.cpu.dtb.walker.walkRequestOrigin_Requested::Data            0                       # Table walker requests started/completed, data/inst
system.cpu.dtb.walker.walkRequestOrigin_Requested::Inst            0                       # Table walker requests started/completed, data/inst
system.cpu.dtb.walker.walkRequestOrigin_Requested::total            0                       # Table walker requests started/completed, data/inst
system.cpu.dtb.walker.walkRequestOrigin_Completed::Data            0                       # Table walker requests started/completed, data/inst
system.cpu.dtb.walker.walkRequestOrigin_Completed::Inst            0                       # Table walker requests started/completed, data/inst
system.cpu.dtb.walker.walkRequestOrigin_Completed::total            0                       # Table walker requests started/completed, data/inst
system.cpu.dtb.walker.walkRequestOrigin::total            0                       # Table walker requests started/completed, data/inst
system.cpu.dtb.walker.walks                         0                       # Table walker walks requested
system.cpu.dtb.write_accesses                       0                       # DTB write accesses
system.cpu.dtb.write_hits                           0                       # DTB write hits
system.cpu.dtb.write_misses                         0                       # DTB write misses
system.cpu.fetch2.amo_instructions                  0                       # Number of memory atomic instructions successfully decoded
system.cpu.fetch2.fp_instructions                   0                       # Number of floating point instructions successfully decoded
system.cpu.fetch2.int_instructions            3800015                       # Number of integer instructions successfully decoded
system.cpu.fetch2.load_instructions            779965                       # Number of memory load instructions successfully decoded
system.cpu.fetch2.store_instructions           349171                       # Number of memory store instructions successfully decoded
system.cpu.fetch2.vec_instructions                  0                       # Number of SIMD instructions successfully decoded
system.cpu.idleCycles                         7531813                       # Total number of cycles that the object has spent stopped
system.cpu.ipc                               0.383292                       # IPC: instructions per cycle
system.cpu.itb.accesses                             0                       # DTB accesses
system.cpu.itb.align_faults                         0                       # Number of TLB faults due to alignment restrictions
system.cpu.itb.domain_faults                        0                       # Number of TLB faults due to domain restrictions
system.cpu.itb.flush_entries                        0                       # Number of entries that have been flushed from TLB
system.cpu.itb.flush_tlb                            0                       # Number of times complete TLB was flushed
system.cpu.itb.flush_tlb_asid                       0                       # Number of times TLB was flushed by ASID
system.cpu.itb.flush_tlb_mva                        0                       # Number of times TLB was flushed by MVA
system.cpu.itb.flush_tlb_mva_asid                   0                       # Number of times TLB was flushed by MVA & ASID
system.cpu.itb.hits                                 0                       # DTB hits
system.cpu.itb.inst_accesses                        0                       # ITB inst accesses
system.cpu.itb.inst_hits                            0                       # ITB inst hits
system.cpu.itb.inst_misses                          0                       # ITB inst misses
system.cpu.itb.misses                               0                       # DTB misses
system.cpu.itb.perms_faults                         0                       # Number of TLB faults due to permissions restrictions
system.cpu.itb.prefetch_faults                      0                       # Number of TLB faults due to prefetch
system.cpu.itb.read_accesses                        0                       # DTB read accesses
system.cpu.itb.read_hits                            0                       # DTB read hits
system.cpu.itb.read_misses                          0                       # DTB read misses
system.cpu.itb.stage2_mmu.stage2_tlb.accesses            0                       # DTB accesses
system.cpu.itb.stage2_mmu.stage2_tlb.align_faults            0                       # Number of TLB faults due to alignment restrictions
system.cpu.itb.stage2_mmu.stage2_tlb.domain_faults            0                       # Number of TLB faults due to domain restrictions
system.cpu.itb.stage2_mmu.stage2_tlb.flush_entries            0                       # Number of entries that have been flushed from TLB
system.cpu.itb.stage2_mmu.stage2_tlb.flush_tlb            0                       # Number of times complete TLB was flushed
system.cpu.itb.stage2_mmu.stage2_tlb.flush_tlb_asid            0                       # Number of times TLB was flushed by ASID
system.cpu.itb.stage2_mmu.stage2_tlb.flush_tlb_mva            0                       # Number of times TLB was flushed by MVA
system.cpu.itb.stage2_mmu.stage2_tlb.flush_tlb_mva_asid            0                       # Number of times TLB was flushed by MVA & ASID
system.cpu.itb.stage2_mmu.stage2_tlb.hits            0                       # DTB hits
system.cpu.itb.stage2_mmu.stage2_tlb.inst_accesses            0                       # ITB inst accesses
system.cpu.itb.stage2_mmu.stage2_tlb.inst_hits            0                       # ITB inst hits
system.cpu.itb.stage2_mmu.stage2_tlb.inst_misses            0                       # ITB inst misses
system.cpu.itb.stage2_mmu.stage2_tlb.misses            0                       # DTB misses
system.cpu.itb.stage2_mmu.stage2_tlb.perms_faults            0                       # Number of TLB faults due to permissions restrictions
system.cpu.itb.stage2_mmu.stage2_tlb.prefetch_faults            0                       # Number of TLB faults due to prefetch
system.cpu.itb.stage2_mmu.stage2_tlb.read_accesses            0                       # DTB read accesses
system.cpu.itb.stage2_mmu.stage2_tlb.read_hits            0                       # DTB read hits
system.cpu.itb.stage2_mmu.stage2_tlb.read_misses            0                       # DTB read misses
system.cpu.itb.stage2_mmu.stage2_tlb.walker.walkRequestOrigin_Requested::Data            0                       # Table walker requests started/completed, data/inst
system.cpu.itb.stage2_mmu.stage2_tlb.walker.walkRequestOrigin_Requested::Inst            0                       # Table walker requests started/completed, data/inst
system.cpu.itb.stage2_mmu.stage2_tlb.walker.walkRequestOrigin_Requested::total            0                       # Table walker requests started/completed, data/inst
system.cpu.itb.stage2_mmu.stage2_tlb.walker.walkRequestOrigin_Completed::Data            0                       # Table walker requests started/completed, data/inst
system.cpu.itb.stage2_mmu.stage2_tlb.walker.walkRequestOrigin_Completed::Inst            0                       # Table walker requests started/completed, data/inst
system.cpu.itb.stage2_mmu.stage2_tlb.walker.walkRequestOrigin_Completed::total            0                       # Table walker requests started/completed, data/inst
system.cpu.itb.stage2_mmu.stage2_tlb.walker.walkRequestOrigin::total            0                       # Table walker requests started/completed, data/inst
system.cpu.itb.stage2_mmu.stage2_tlb.walker.walks            0                       # Table walker walks requested
system.cpu.itb.stage2_mmu.stage2_tlb.write_accesses            0                       # DTB write accesses
system.cpu.itb.stage2_mmu.stage2_tlb.write_hits            0                       # DTB write hits
system.cpu.itb.stage2_mmu.stage2_tlb.write_misses            0                       # DTB write misses
system.cpu.itb.walker.walkRequestOrigin_Requested::Data            0                       # Table walker requests started/completed, data/inst
system.cpu.itb.walker.walkRequestOrigin_Requested::Inst            0                       # Table walker requests started/completed, data/inst
system.cpu.itb.walker.walkRequestOrigin_Requested::total            0                       # Table walker requests started/completed, data/inst
system.cpu.itb.walker.walkRequestOrigin_Completed::Data            0                       # Table walker requests started/completed, data/inst
system.cpu.itb.walker.walkRequestOrigin_Completed::Inst            0                       # Table walker requests started/completed, data/inst
system.cpu.itb.walker.walkRequestOrigin_Completed::total            0                       # Table walker requests started/completed, data/inst
system.cpu.itb.walker.walkRequestOrigin::total            0                       # Table walker requests started/completed, data/inst
system.cpu.itb.walker.walks                         0                       # Table walker walks requested
system.cpu.itb.write_accesses                       0                       # DTB write accesses
system.cpu.itb.write_hits                           0                       # DTB write hits
system.cpu.itb.write_misses                         0                       # DTB write misses
system.cpu.kern.inst.arm                            0                       # number of arm instructions executed
system.cpu.kern.inst.quiesce                     4298                       # number of quiesce instructions executed
system.cpu.numCycles                         13649859                       # number of cpu cycles simulated
system.cpu.numFetchSuspends                      4298                       # Number of times Execute suspended instruction fetching
system.cpu.numWorkItemsCompleted                    0                       # number of work items this cpu completed
system.cpu.numWorkItemsStarted                      0                       # number of work items this cpu started
system.cpu.op_class_0::No_OpClass                   0      0.00%      0.00% # Class of committed instruction
system.cpu.op_class_0::IntAlu                 4184851     74.33%     74.33% # Class of committed instruction
system.cpu.op_class_0::IntMult                  10410      0.18%     74.51% # Class of committed instruction
system.cpu.op_class_0::IntDiv                       0      0.00%     74.51% # Class of committed instruction
system.cpu.op_class_0::FloatAdd                     0      0.00%     74.51% # Class of committed instruction
system.cpu.op_class_0::FloatCmp                     0      0.00%     74.51% # Class of committed instruction
system.cpu.op_class_0::FloatCvt                     0      0.00%     74.51% # Class of committed instruction
system.cpu.op_class_0::FloatMult                    0      0.00%     74.51% # Class of committed instruction
system.cpu.op_class_0::FloatMultAcc                 0      0.00%     74.51% # Class of committed instruction
system.cpu.op_class_0::FloatDiv                     0      0.00%     74.51% # Class of committed instruction
system.cpu.op_class_0::FloatMisc                    0      0.00%     74.51% # Class of committed instruction
system.cpu.op_class_0::FloatSqrt                    0      0.00%     74.51% # Class of committed instruction
system.cpu.op_class_0::SimdAdd                      0      0.00%     74.51% # Class of committed instruction
system.cpu.op_class_0::SimdAddAcc                   0      0.00%     74.51% # Class of committed instruction
system.cpu.op_class_0::SimdAlu                      0      0.00%     74.51% # Class of committed instruction
system.cpu.op_class_0::SimdCmp                      0      0.00%     74.51% # Class of committed instruction
system.cpu.op_class_0::SimdCvt                      0      0.00%     74.51% # Class of committed instruction
system.cpu.op_class_0::SimdMisc                     0      0.00%     74.51% # Class of committed instruction
system.cpu.op_class_0::SimdMult                     0      0.00%     74.51% # Class of committed instruction
system.cpu.op_class_0::SimdMultAcc                  0      0.00%     74.51% # Class of committed instruction
system.cpu.op_class_0::SimdShift                    0      0.00%     74.51% # Class of committed instruction
system.cpu.op_class_0::SimdShiftAcc                 0      0.00%     74.51% # Class of committed instruction
system.cpu.op_class_0::SimdDiv                      0      0.00%     74.51% # Class of committed instruction
system.cpu.op_class_0::SimdSqrt                     0      0.00%     74.51% # Class of committed instruction
system.cpu.op_class_0::SimdFloatAdd                 0      0.00%     74.51% # Class of committed instruction
system.cpu.op_class_0::SimdFloatAlu                 0      0.00%     74.51% # Class of committed instruction
system.cpu.op_class_0::SimdFloatCmp                 0      0.00%     74.51% # Class of committed instruction
system.cpu.op_class_0::SimdFloatCvt                 0      0.00%     74.51% # Class of committed instruction
system.cpu.op_class_0::SimdFloatDiv                 0      0.00%     74.51% # Class of committed instruction
system.cpu.op_class_0::SimdFloatMisc                0      0.00%     74.51% # Class of committed instruction
system.cpu.op_class_0::SimdFloatMult                0      0.00%     74.51% # Class of committed instruction
system.cpu.op_class_0::SimdFloatMultAcc             0      0.00%     74.51% # Class of committed instruction
system.cpu.op_class_0::SimdFloatSqrt                0      0.00%     74.51% # Class of committed instruction
system.cpu.op_class_0::SimdReduceAdd                0      0.00%     74.51% # Class of committed instruction
system.cpu.op_class_0::SimdReduceAlu                0      0.00%     74.51% # Class of committed instruction
system.cpu.op_class_0::SimdReduceCmp                0      0.00%     74.51% # Class of committed instruction
system.cpu.op_class_0::SimdFloatReduceAdd            0      0.00%     74.51% # Class of committed instruction
system.cpu.op_class_0::SimdFloatReduceCmp            0      0.00%     74.51% # Class of committed instruction
system.cpu.op_class_0::SimdAes                      0      0.00%     74.51% # Class of committed instruction
system.cpu.op_class_0::SimdAesMix                   0      0.00%     74.51% # Class of committed instruction
system.cpu.op_class_0::SimdSha1Hash                 0      0.00%     74.51% # Class of committed instruction
system.cpu.op_class_0::SimdSha1Hash2                0      0.00%     74.51% # Class of committed instruction
system.cpu.op_class_0::SimdSha256Hash               0      0.00%     74.51% # Class of committed instruction
system.cpu.op_class_0::SimdSha256Hash2              0      0.00%     74.51% # Class of committed instruction
system.cpu.op_class_0::SimdShaSigma2                0      0.00%     74.51% # Class of committed instruction
system.cpu.op_class_0::SimdShaSigma3                0      0.00%     74.51% # Class of committed instruction
system.cpu.op_class_0::SimdPredAlu                  0      0.00%     74.51% # Class of committed instruction
system.cpu.op_class_0::MemRead                 870230     15.46%     89.97% # Class of committed instruction
system.cpu.op_class_0::MemWrite                564744     10.03%    100.00% # Class of committed instruction
system.cpu.op_class_0::FloatMemRead                 0      0.00%    100.00% # Class of committed instruction
system.cpu.op_class_0::FloatMemWrite                0      0.00%    100.00% # Class of committed instruction
system.cpu.op_class_0::IprAccess                    0      0.00%    100.00% # Class of committed instruction
system.cpu.op_class_0::InstPrefetch                 0      0.00%    100.00% # Class of committed instruction
system.cpu.op_class_0::total                  5630235                       # Class of committed instruction
system.cpu.quiesceCycles                     65290525                       # Total number of cycles that CPU has spent quiesced or waiting for an interrupt
system.cpu.tickCycles                         6118046                       # Number of cycles that the object actually ticked
system.membus.snoop_filter.hit_multi_requests         1298                       # Number of requests hitting in the snoop filter with multiple (>1) holders of the requested data.
system.membus.snoop_filter.hit_multi_snoops            0                       # Number of snoops hitting in the snoop filter with multiple (>1) holders of the requested data.
system.membus.snoop_filter.hit_single_requests        19177                       # Number of requests hitting in the snoop filter with a single holder of the requested data.
system.membus.snoop_filter.hit_single_snoops            0                       # Number of snoops hitting in the snoop filter with a single holder of the requested data.
system.membus.snoop_filter.tot_requests         38493                       # Total number of requests made to the snoop filter.
system.membus.snoop_filter.tot_snoops               0                       # Total number of snoops made to the snoop filter.
system.bridge.pwrStateResidencyTicks::UNDEFINED 104779452500                       # Cumulative time (in ticks) in various power states
system.voltage_domain.voltage                       1                       # Voltage in Volts
system.iocache.pwrStateResidencyTicks::UNDEFINED 104779452500                       # Cumulative time (in ticks) in various power states
system.iocache.blocked_cycles::no_mshrs             0                       # number of cycles access was blocked
system.iocache.blocked_cycles::no_targets            0                       # number of cycles access was blocked
system.iocache.blocked::no_mshrs                    0                       # number of cycles access was blocked
system.iocache.blocked::no_targets                  0                       # number of cycles access was blocked
system.iocache.avg_blocked_cycles::no_mshrs          nan                       # average number of cycles each access was blocked
system.iocache.avg_blocked_cycles::no_targets          nan                       # average number of cycles each access was blocked
system.iocache.replacements                         0                       # number of replacements
system.iocache.tags.pwrStateResidencyTicks::UNDEFINED 104779452500                       # Cumulative time (in ticks) in various power states
system.iocache.tags.tagsinuse                       0                       # Cycle average of tags in use
system.iocache.tags.total_refs                      0                       # Total number of references to valid blocks.
system.iocache.tags.sampled_refs                    0                       # Sample count of references to valid blocks.
system.iocache.tags.avg_refs                      nan                       # Average number of references to valid blocks.
system.iocache.tags.warmup_cycle                    0                       # Cycle when the warmup percentage was hit.
system.iocache.tags.tag_accesses                    0                       # Number of tag accesses
system.iocache.tags.data_accesses                   0                       # Number of data accesses
system.membus.pwrStateResidencyTicks::UNDEFINED 104779452500                       # Cumulative time (in ticks) in various power states
system.membus.trans_dist::ReadReq             1922232                       # Transaction distribution
system.membus.trans_dist::ReadResp            1940021                       # Transaction distribution
system.membus.trans_dist::WriteReq            1178219                       # Transaction distribution
system.membus.trans_dist::WriteResp           1178219                       # Transaction distribution
system.membus.trans_dist::WritebackDirty         3371                       # Transaction distribution
system.membus.trans_dist::CleanEvict            15777                       # Transaction distribution
system.membus.trans_dist::ReadExReq              1539                       # Transaction distribution
system.membus.trans_dist::ReadExResp             1540                       # Transaction distribution
system.membus.trans_dist::ReadCleanReq          14575                       # Transaction distribution
system.membus.trans_dist::ReadSharedReq          3222                       # Transaction distribution
system.membus.pkt_count_system.cpu.icache.mem_side::system.realview.bootmem.port        43536                       # Packet count per connected master and slave (bytes)
system.membus.pkt_count_system.cpu.icache.mem_side::total        43536                       # Packet count per connected master and slave (bytes)
system.membus.pkt_count_system.cpu.dcache.mem_side::system.realview.bootmem.port          132                       # Packet count per connected master and slave (bytes)
system.membus.pkt_count_system.cpu.dcache.mem_side::system.realview.gic.pio        17386                       # Packet count per connected master and slave (bytes)
system.membus.pkt_count_system.cpu.dcache.mem_side::system.mem_ctrls.port        14153                       # Packet count per connected master and slave (bytes)
system.membus.pkt_count_system.cpu.dcache.mem_side::system.acctest.mem2cls.slave        68322                       # Packet count per connected master and slave (bytes)
system.membus.pkt_count_system.cpu.dcache.mem_side::total        99993                       # Packet count per connected master and slave (bytes)
system.membus.pkt_count_system.acctest.coherency_bus.master[0]::system.mem_ctrls.port      6115186                       # Packet count per connected master and slave (bytes)
system.membus.pkt_count_system.acctest.coherency_bus.master[0]::total      6115186                       # Packet count per connected master and slave (bytes)
system.membus.pkt_count::total                6258715                       # Packet count per connected master and slave (bytes)
system.membus.pkt_size_system.cpu.icache.mem_side::system.realview.bootmem.port       932800                       # Cumulative packet size per connected master and slave (bytes)
system.membus.pkt_size_system.cpu.icache.mem_side::total       932800                       # Cumulative packet size per connected master and slave (bytes)
system.membus.pkt_size_system.cpu.dcache.mem_side::system.realview.bootmem.port         3328                       # Cumulative packet size per connected master and slave (bytes)
system.membus.pkt_size_system.cpu.dcache.mem_side::system.realview.gic.pio        34772                       # Cumulative packet size per connected master and slave (bytes)
system.membus.pkt_size_system.cpu.dcache.mem_side::system.mem_ctrls.port       517184                       # Cumulative packet size per connected master and slave (bytes)
system.membus.pkt_size_system.cpu.dcache.mem_side::system.acctest.mem2cls.slave        95781                       # Cumulative packet size per connected master and slave (bytes)
system.membus.pkt_size_system.cpu.dcache.mem_side::total       651065                       # Cumulative packet size per connected master and slave (bytes)
system.membus.pkt_size_system.acctest.coherency_bus.master[0]::system.mem_ctrls.port    195684676                       # Cumulative packet size per connected master and slave (bytes)
system.membus.pkt_size_system.acctest.coherency_bus.master[0]::total    195684676                       # Cumulative packet size per connected master and slave (bytes)
system.membus.pkt_size::total               197268541                       # Cumulative packet size per connected master and slave (bytes)
system.membus.snoops                                0                       # Total snoops (count)
system.membus.snoopTraffic                          0                       # Total snoop traffic (bytes)
system.membus.snoop_fanout::samples           3123718                       # Request fanout histogram
system.membus.snoop_fanout::mean             0.000425                       # Request fanout histogram
system.membus.snoop_fanout::stdev            0.020607                       # Request fanout histogram
system.membus.snoop_fanout::underflows              0      0.00%      0.00% # Request fanout histogram
system.membus.snoop_fanout::0                 3122391     99.96%     99.96% # Request fanout histogram
system.membus.snoop_fanout::1                    1327      0.04%    100.00% # Request fanout histogram
system.membus.snoop_fanout::2                       0      0.00%    100.00% # Request fanout histogram
system.membus.snoop_fanout::3                       0      0.00%    100.00% # Request fanout histogram
system.membus.snoop_fanout::4                       0      0.00%    100.00% # Request fanout histogram
system.membus.snoop_fanout::overflows               0      0.00%    100.00% # Request fanout histogram
system.membus.snoop_fanout::min_value               0                       # Request fanout histogram
system.membus.snoop_fanout::max_value               1                       # Request fanout histogram
system.membus.snoop_fanout::total             3123718                       # Request fanout histogram
system.membus.reqLayer6.occupancy          8373784175                       # Layer occupancy (ticks)
system.membus.reqLayer6.utilization              17.0                       # Layer utilization (%)
system.membus.reqLayer7.occupancy            86652250                       # Layer occupancy (ticks)
system.membus.reqLayer7.utilization               0.2                       # Layer utilization (%)
system.membus.reqLayer1.occupancy            42426671                       # Layer occupancy (ticks)
system.membus.reqLayer1.utilization               0.1                       # Layer utilization (%)
system.membus.reqLayer2.occupancy            16749125                       # Layer occupancy (ticks)
system.membus.reqLayer2.utilization               0.0                       # Layer utilization (%)
system.membus.badaddr_responder.pwrStateResidencyTicks::UNDEFINED 104779452500                       # Cumulative time (in ticks) in various power states
system.membus.respLayer4.occupancy           74461860                       # Layer occupancy (ticks)
system.membus.respLayer4.utilization              0.2                       # Layer utilization (%)
system.membus.respLayer7.occupancy        11910191057                       # Layer occupancy (ticks)
system.membus.respLayer7.utilization             24.1                       # Layer utilization (%)
system.membus.respLayer3.occupancy           73833500                       # Layer occupancy (ticks)
system.membus.respLayer3.utilization              0.1                       # Layer utilization (%)
system.acctest.harris_non_max0_spm.pwrStateResidencyTicks::UNDEFINED 104779452500                       # Cumulative time (in ticks) in various power states
system.acctest.elem_matrix2_spm.pwrStateResidencyTicks::UNDEFINED 104779452500                       # Cumulative time (in ticks) in various power states
system.acctest.elem_matrix3_spm.pwrStateResidencyTicks::UNDEFINED 104779452500                       # Cumulative time (in ticks) in various power states
system.acctest.local_bus.pwrStateResidencyTicks::UNDEFINED 104779452500                       # Cumulative time (in ticks) in various power states
system.acctest.local_bus.trans_dist::ReadReq      2437632                       # Transaction distribution
system.acctest.local_bus.trans_dist::ReadResp      2437632                       # Transaction distribution
system.acctest.local_bus.trans_dist::WriteReq      4028119                       # Transaction distribution
system.acctest.local_bus.trans_dist::WriteResp      4028118                       # Transaction distribution
system.acctest.local_bus.pkt_count_system.acctest.mem2cls.master::system.acctest.convolution0.pio          600                       # Packet count per connected master and slave (bytes)
system.acctest.local_bus.pkt_count_system.acctest.mem2cls.master::system.acctest.convolution0_dma.pio         1260                       # Packet count per connected master and slave (bytes)
system.acctest.local_bus.pkt_count_system.acctest.mem2cls.master::system.acctest.elem_matrix0.pio        24300                       # Packet count per connected master and slave (bytes)
system.acctest.local_bus.pkt_count_system.acctest.mem2cls.master::system.acctest.elem_matrix0_dma.pio        41958                       # Packet count per connected master and slave (bytes)
system.acctest.local_bus.pkt_count_system.acctest.mem2cls.master::system.acctest.grayscale0.pio           30                       # Packet count per connected master and slave (bytes)
system.acctest.local_bus.pkt_count_system.acctest.mem2cls.master::system.acctest.grayscale0_dma.pio           84                       # Packet count per connected master and slave (bytes)
system.acctest.local_bus.pkt_count_system.acctest.mem2cls.master::system.acctest.isp0.pio           36                       # Packet count per connected master and slave (bytes)
system.acctest.local_bus.pkt_count_system.acctest.mem2cls.master::system.acctest.isp0_dma.pio           54                       # Packet count per connected master and slave (bytes)
system.acctest.local_bus.pkt_count_system.acctest.mem2cls.master::total        68322                       # Packet count per connected master and slave (bytes)
system.acctest.local_bus.pkt_count_system.acctest.convolution0_dma.dma::system.acctest.convolution0_spm.port       246000                       # Packet count per connected master and slave (bytes)
system.acctest.local_bus.pkt_count_system.acctest.convolution0_dma.dma::system.acctest.elem_matrix0_spm.port       110592                       # Packet count per connected master and slave (bytes)
system.acctest.local_bus.pkt_count_system.acctest.convolution0_dma.dma::system.acctest.grayscale0_spm.port        12288                       # Packet count per connected master and slave (bytes)
system.acctest.local_bus.pkt_count_system.acctest.convolution0_dma.dma::total       368880                       # Packet count per connected master and slave (bytes)
system.acctest.local_bus.pkt_count_system.acctest.elem_matrix0_dma.dma::system.acctest.convolution0_spm.port       122880                       # Packet count per connected master and slave (bytes)
system.acctest.local_bus.pkt_count_system.acctest.elem_matrix0_dma.dma::system.acctest.elem_matrix0_spm.port     12275712                       # Packet count per connected master and slave (bytes)
system.acctest.local_bus.pkt_count_system.acctest.elem_matrix0_dma.dma::system.acctest.grayscale0_spm.port        61440                       # Packet count per connected master and slave (bytes)
system.acctest.local_bus.pkt_count_system.acctest.elem_matrix0_dma.dma::total     12460032                       # Packet count per connected master and slave (bytes)
system.acctest.local_bus.pkt_count_system.acctest.grayscale0_dma.dma::system.acctest.grayscale0_spm.port        21504                       # Packet count per connected master and slave (bytes)
system.acctest.local_bus.pkt_count_system.acctest.grayscale0_dma.dma::system.acctest.isp0_spm.port         9216                       # Packet count per connected master and slave (bytes)
system.acctest.local_bus.pkt_count_system.acctest.grayscale0_dma.dma::total        30720                       # Packet count per connected master and slave (bytes)
system.acctest.local_bus.pkt_count_system.acctest.isp0_dma.dma::system.acctest.isp0_spm.port         3547                       # Packet count per connected master and slave (bytes)
system.acctest.local_bus.pkt_count_system.acctest.isp0_dma.dma::total         3547                       # Packet count per connected master and slave (bytes)
system.acctest.local_bus.pkt_count::total     12931501                       # Packet count per connected master and slave (bytes)
system.acctest.local_bus.pkt_size_system.acctest.mem2cls.master::system.acctest.convolution0.pio          840                       # Cumulative packet size per connected master and slave (bytes)
system.acctest.local_bus.pkt_size_system.acctest.mem2cls.master::system.acctest.convolution0_dma.pio         1980                       # Cumulative packet size per connected master and slave (bytes)
system.acctest.local_bus.pkt_size_system.acctest.mem2cls.master::system.acctest.elem_matrix0.pio        26730                       # Cumulative packet size per connected master and slave (bytes)
system.acctest.local_bus.pkt_size_system.acctest.mem2cls.master::system.acctest.elem_matrix0_dma.pio        65934                       # Cumulative packet size per connected master and slave (bytes)
system.acctest.local_bus.pkt_size_system.acctest.mem2cls.master::system.acctest.grayscale0.pio           33                       # Cumulative packet size per connected master and slave (bytes)
system.acctest.local_bus.pkt_size_system.acctest.mem2cls.master::system.acctest.grayscale0_dma.pio          132                       # Cumulative packet size per connected master and slave (bytes)
system.acctest.local_bus.pkt_size_system.acctest.mem2cls.master::system.acctest.isp0.pio           45                       # Cumulative packet size per connected master and slave (bytes)
system.acctest.local_bus.pkt_size_system.acctest.mem2cls.master::system.acctest.isp0_dma.pio           87                       # Cumulative packet size per connected master and slave (bytes)
system.acctest.local_bus.pkt_size_system.acctest.mem2cls.master::total        95781                       # Cumulative packet size per connected master and slave (bytes)
system.acctest.local_bus.pkt_size_system.acctest.convolution0_dma.dma::system.acctest.convolution0_spm.port      3935160                       # Cumulative packet size per connected master and slave (bytes)
system.acctest.local_bus.pkt_size_system.acctest.convolution0_dma.dma::system.acctest.elem_matrix0_spm.port      1769472                       # Cumulative packet size per connected master and slave (bytes)
system.acctest.local_bus.pkt_size_system.acctest.convolution0_dma.dma::system.acctest.grayscale0_spm.port       196608                       # Cumulative packet size per connected master and slave (bytes)
system.acctest.local_bus.pkt_size_system.acctest.convolution0_dma.dma::total      5901240                       # Cumulative packet size per connected master and slave (bytes)
system.acctest.local_bus.pkt_size_system.acctest.elem_matrix0_dma.dma::system.acctest.convolution0_spm.port      1966080                       # Cumulative packet size per connected master and slave (bytes)
system.acctest.local_bus.pkt_size_system.acctest.elem_matrix0_dma.dma::system.acctest.elem_matrix0_spm.port    196411392                       # Cumulative packet size per connected master and slave (bytes)
system.acctest.local_bus.pkt_size_system.acctest.elem_matrix0_dma.dma::system.acctest.grayscale0_spm.port       983040                       # Cumulative packet size per connected master and slave (bytes)
system.acctest.local_bus.pkt_size_system.acctest.elem_matrix0_dma.dma::total    199360512                       # Cumulative packet size per connected master and slave (bytes)
system.acctest.local_bus.pkt_size_system.acctest.grayscale0_dma.dma::system.acctest.grayscale0_spm.port       344064                       # Cumulative packet size per connected master and slave (bytes)
system.acctest.local_bus.pkt_size_system.acctest.grayscale0_dma.dma::system.acctest.isp0_spm.port       147456                       # Cumulative packet size per connected master and slave (bytes)
system.acctest.local_bus.pkt_size_system.acctest.grayscale0_dma.dma::total       491520                       # Cumulative packet size per connected master and slave (bytes)
system.acctest.local_bus.pkt_size_system.acctest.isp0_dma.dma::system.acctest.isp0_spm.port        56684                       # Cumulative packet size per connected master and slave (bytes)
system.acctest.local_bus.pkt_size_system.acctest.isp0_dma.dma::total        56684                       # Cumulative packet size per connected master and slave (bytes)
system.acctest.local_bus.pkt_size::total    205905737                       # Cumulative packet size per connected master and slave (bytes)
system.acctest.local_bus.occupancy        21748269625                       # Network occupancy (ticks)
system.acctest.local_bus.utilization             44.1                       # Network utilization (%)
system.acctest.local_bus.numRequests         14292994                       # Number of requests
system.acctest.local_bus.averageQueuingDelay          765                       # Average queuing delay (ticks)
system.acctest.local_bus.tailQueuingDelay        10000                       # Tail queuing delay (ticks)
system.acctest.local_bus.averageQueueLength         0.22                       # Average queue length
system.acctest.local_bus.maxQueueLength             7                       # Max queue length
system.acctest.local_bus.reqLayer0.occupancy  17479813735                       # Layer occupancy (ticks)
system.acctest.local_bus.reqLayer0.utilization         35.4                       # Layer utilization (%)
system.acctest.local_bus.respLayer0.occupancy  11343318000                       # Layer occupancy (ticks)
system.acctest.local_bus.respLayer0.utilization         23.0                       # Layer utilization (%)
system.acctest.isp0.pwrStateResidencyTicks::UNDEFINED 104779452500                       # Cumulative time (in ticks) in various power states
system.acctest.edge_tracking0.pwrStateResidencyTicks::UNDEFINED 104779452500                       # Cumulative time (in ticks) in various power states
system.acctest.grayscale0_spm.pwrStateResidencyTicks::UNDEFINED 104779452500                       # Cumulative time (in ticks) in various power states
system.acctest.grayscale0_spm.bytes_read::.acctest.convolution0_dma       196608                       # Number of bytes read from this memory
system.acctest.grayscale0_spm.bytes_read::.acctest.elem_matrix0_dma       983040                       # Number of bytes read from this memory
system.acctest.grayscale0_spm.bytes_read::.acctest.grayscale0.system.acctest.grayscale0       147456                       # Number of bytes read from this memory
system.acctest.grayscale0_spm.bytes_read::.acctest.grayscale0_dma       196608                       # Number of bytes read from this memory
system.acctest.grayscale0_spm.bytes_read::total      1523712                       # Number of bytes read from this memory
system.acctest.grayscale0_spm.bytes_written::.acctest.grayscale0.system.acctest.grayscale0       196608                       # Number of bytes written to this memory
system.acctest.grayscale0_spm.bytes_written::.acctest.grayscale0_dma       147456                       # Number of bytes written to this memory
system.acctest.grayscale0_spm.bytes_written::total       344064                       # Number of bytes written to this memory
system.acctest.grayscale0_spm.num_reads::.acctest.convolution0_dma         6144                       # Number of read requests responded to by this memory
system.acctest.grayscale0_spm.num_reads::.acctest.elem_matrix0_dma        30720                       # Number of read requests responded to by this memory
system.acctest.grayscale0_spm.num_reads::.acctest.grayscale0.system.acctest.grayscale0       147456                       # Number of read requests responded to by this memory
system.acctest.grayscale0_spm.num_reads::.acctest.grayscale0_dma         6144                       # Number of read requests responded to by this memory
system.acctest.grayscale0_spm.num_reads::total       190464                       # Number of read requests responded to by this memory
system.acctest.grayscale0_spm.num_writes::.acctest.grayscale0.system.acctest.grayscale0        49152                       # Number of write requests responded to by this memory
system.acctest.grayscale0_spm.num_writes::.acctest.grayscale0_dma         4608                       # Number of write requests responded to by this memory
system.acctest.grayscale0_spm.num_writes::total        53760                       # Number of write requests responded to by this memory
system.acctest.grayscale0_spm.bw_read::.acctest.convolution0_dma      3984941                       # Total read bandwidth from this memory (bytes/s)
system.acctest.grayscale0_spm.bw_read::.acctest.elem_matrix0_dma     19924707                       # Total read bandwidth from this memory (bytes/s)
system.acctest.grayscale0_spm.bw_read::.acctest.grayscale0.system.acctest.grayscale0      2988706                       # Total read bandwidth from this memory (bytes/s)
system.acctest.grayscale0_spm.bw_read::.acctest.grayscale0_dma      3984941                       # Total read bandwidth from this memory (bytes/s)
system.acctest.grayscale0_spm.bw_read::total     30883295                       # Total read bandwidth from this memory (bytes/s)
system.acctest.grayscale0_spm.bw_write::.acctest.grayscale0.system.acctest.grayscale0      3984941                       # Write bandwidth from this memory (bytes/s)
system.acctest.grayscale0_spm.bw_write::.acctest.grayscale0_dma      2988706                       # Write bandwidth from this memory (bytes/s)
system.acctest.grayscale0_spm.bw_write::total      6973647                       # Write bandwidth from this memory (bytes/s)
system.acctest.grayscale0_spm.bw_total::.acctest.convolution0_dma      3984941                       # Total bandwidth to/from this memory (bytes/s)
system.acctest.grayscale0_spm.bw_total::.acctest.elem_matrix0_dma     19924707                       # Total bandwidth to/from this memory (bytes/s)
system.acctest.grayscale0_spm.bw_total::.acctest.grayscale0.system.acctest.grayscale0      6973647                       # Total bandwidth to/from this memory (bytes/s)
system.acctest.grayscale0_spm.bw_total::.acctest.grayscale0_dma      6973647                       # Total bandwidth to/from this memory (bytes/s)
system.acctest.grayscale0_spm.bw_total::total     37856943                       # Total bandwidth to/from this memory (bytes/s)
system.acctest.elem_matrix1_dma.pwrStateResidencyTicks::UNDEFINED 104779452500                       # Cumulative time (in ticks) in various power states
system.acctest.mem2cls.pwrStateResidencyTicks::UNDEFINED 104779452500                       # Cumulative time (in ticks) in various power states
system.acctest.isp0_dma.pwrStateResidencyTicks::UNDEFINED 104779452500                       # Cumulative time (in ticks) in various power states
system.acctest.grayscale0_dma.pwrStateResidencyTicks::UNDEFINED 104779452500                       # Cumulative time (in ticks) in various power states
system.acctest.convolution0.pwrStateResidencyTicks::UNDEFINED 104779452500                       # Cumulative time (in ticks) in various power states
system.acctest.convolution1.pwrStateResidencyTicks::UNDEFINED 104779452500                       # Cumulative time (in ticks) in various power states
system.acctest.isp0_spm.pwrStateResidencyTicks::UNDEFINED 104779452500                       # Cumulative time (in ticks) in various power states
system.acctest.isp0_spm.bytes_read::.acctest.grayscale0_dma       147456                       # Number of bytes read from this memory
system.acctest.isp0_spm.bytes_read::.acctest.isp0.system.acctest.isp0       344064                       # Number of bytes read from this memory
system.acctest.isp0_spm.bytes_read::total       491520                       # Number of bytes read from this memory
system.acctest.isp0_spm.bytes_written::.acctest.isp0.system.acctest.isp0       147456                       # Number of bytes written to this memory
system.acctest.isp0_spm.bytes_written::.acctest.isp0_dma        56684                       # Number of bytes written to this memory
system.acctest.isp0_spm.bytes_written::total       204140                       # Number of bytes written to this memory
system.acctest.isp0_spm.num_reads::.acctest.grayscale0_dma         4608                       # Number of read requests responded to by this memory
system.acctest.isp0_spm.num_reads::.acctest.isp0.system.acctest.isp0       344064                       # Number of read requests responded to by this memory
system.acctest.isp0_spm.num_reads::total       348672                       # Number of read requests responded to by this memory
system.acctest.isp0_spm.num_writes::.acctest.isp0.system.acctest.isp0       147456                       # Number of write requests responded to by this memory
system.acctest.isp0_spm.num_writes::.acctest.isp0_dma         1774                       # Number of write requests responded to by this memory
system.acctest.isp0_spm.num_writes::total       149230                       # Number of write requests responded to by this memory
system.acctest.isp0_spm.bw_read::.acctest.grayscale0_dma      2988706                       # Total read bandwidth from this memory (bytes/s)
system.acctest.isp0_spm.bw_read::.acctest.isp0.system.acctest.isp0      6973647                       # Total read bandwidth from this memory (bytes/s)
system.acctest.isp0_spm.bw_read::total        9962353                       # Total read bandwidth from this memory (bytes/s)
system.acctest.isp0_spm.bw_write::.acctest.isp0.system.acctest.isp0      2988706                       # Write bandwidth from this memory (bytes/s)
system.acctest.isp0_spm.bw_write::.acctest.isp0_dma      1148897                       # Write bandwidth from this memory (bytes/s)
system.acctest.isp0_spm.bw_write::total       4137603                       # Write bandwidth from this memory (bytes/s)
system.acctest.isp0_spm.bw_total::.acctest.grayscale0_dma      2988706                       # Total bandwidth to/from this memory (bytes/s)
system.acctest.isp0_spm.bw_total::.acctest.isp0.system.acctest.isp0      9962353                       # Total bandwidth to/from this memory (bytes/s)
system.acctest.isp0_spm.bw_total::.acctest.isp0_dma      1148897                       # Total bandwidth to/from this memory (bytes/s)
system.acctest.isp0_spm.bw_total::total      14099957                       # Total bandwidth to/from this memory (bytes/s)
system.acctest.coherency_bus.pwrStateResidencyTicks::UNDEFINED 104779452500                       # Cumulative time (in ticks) in various power states
system.acctest.coherency_bus.trans_dist::ReadReq      1917885                       # Transaction distribution
system.acctest.coherency_bus.trans_dist::ReadResp      1917877                       # Transaction distribution
system.acctest.coherency_bus.trans_dist::WriteReq      1139712                       # Transaction distribution
system.acctest.coherency_bus.trans_dist::WriteResp      1139712                       # Transaction distribution
system.acctest.coherency_bus.pkt_count_system.acctest.convolution0_dma.dma::system.membus.slave[7]        61560                       # Packet count per connected master and slave (bytes)
system.acctest.coherency_bus.pkt_count_system.acctest.elem_matrix0_dma.dma::system.membus.slave[7]      6045696                       # Packet count per connected master and slave (bytes)
system.acctest.coherency_bus.pkt_count_system.acctest.grayscale0_dma.dma::system.membus.slave[7]         6144                       # Packet count per connected master and slave (bytes)
system.acctest.coherency_bus.pkt_count_system.acctest.isp0_dma.dma::system.membus.slave[7]         1786                       # Packet count per connected master and slave (bytes)
system.acctest.coherency_bus.pkt_count::total      6115186                       # Packet count per connected master and slave (bytes)
system.acctest.coherency_bus.pkt_size_system.acctest.convolution0_dma.dma::system.membus.slave[7]      1969080                       # Cumulative packet size per connected master and slave (bytes)
system.acctest.coherency_bus.pkt_size_system.acctest.elem_matrix0_dma.dma::system.membus.slave[7]    193462272                       # Cumulative packet size per connected master and slave (bytes)
system.acctest.coherency_bus.pkt_size_system.acctest.grayscale0_dma.dma::system.membus.slave[7]       196608                       # Cumulative packet size per connected master and slave (bytes)
system.acctest.coherency_bus.pkt_size_system.acctest.isp0_dma.dma::system.membus.slave[7]        56716                       # Cumulative packet size per connected master and slave (bytes)
system.acctest.coherency_bus.pkt_size::total    195684676                       # Cumulative packet size per connected master and slave (bytes)
system.acctest.coherency_bus.snoops                 0                       # Total snoops (count)
system.acctest.coherency_bus.snoopTraffic            0                       # Total snoop traffic (bytes)
system.acctest.coherency_bus.snoop_fanout::samples      3799004                       # Request fanout histogram
system.acctest.coherency_bus.snoop_fanout::mean            0                       # Request fanout histogram
system.acctest.coherency_bus.snoop_fanout::stdev            0                       # Request fanout histogram
system.acctest.coherency_bus.snoop_fanout::underflows            0      0.00%      0.00% # Request fanout histogram
system.acctest.coherency_bus.snoop_fanout::0      3799004    100.00%    100.00% # Request fanout histogram
system.acctest.coherency_bus.snoop_fanout::overflows            0      0.00%    100.00% # Request fanout histogram
system.acctest.coherency_bus.snoop_fanout::min_value            0                       # Request fanout histogram
system.acctest.coherency_bus.snoop_fanout::max_value            0                       # Request fanout histogram
system.acctest.coherency_bus.snoop_fanout::total      3799004                       # Request fanout histogram
system.acctest.coherency_bus.reqLayer0.occupancy   9084283425                       # Layer occupancy (ticks)
system.acctest.coherency_bus.reqLayer0.utilization         18.4                       # Layer utilization (%)
system.acctest.coherency_bus.respLayer0.occupancy  10729058000                       # Layer occupancy (ticks)
system.acctest.coherency_bus.respLayer0.utilization         21.7                       # Layer utilization (%)
system.acctest.convolution0_spm.pwrStateResidencyTicks::UNDEFINED 104779452500                       # Cumulative time (in ticks) in various power states
system.acctest.convolution0_spm.bytes_read::.acctest.convolution0.system.acctest.convolution0     96469440                       # Number of bytes read from this memory
system.acctest.convolution0_spm.bytes_read::.acctest.convolution0_dma      1966080                       # Number of bytes read from this memory
system.acctest.convolution0_spm.bytes_read::.acctest.elem_matrix0_dma      1966080                       # Number of bytes read from this memory
system.acctest.convolution0_spm.bytes_read::total    100401600                       # Number of bytes read from this memory
system.acctest.convolution0_spm.bytes_written::.acctest.convolution0.system.acctest.convolution0      1966080                       # Number of bytes written to this memory
system.acctest.convolution0_spm.bytes_written::.acctest.convolution0_dma      1969080                       # Number of bytes written to this memory
system.acctest.convolution0_spm.bytes_written::total      3935160                       # Number of bytes written to this memory
system.acctest.convolution0_spm.num_reads::.acctest.convolution0.system.acctest.convolution0     24117360                       # Number of read requests responded to by this memory
system.acctest.convolution0_spm.num_reads::.acctest.convolution0_dma        61440                       # Number of read requests responded to by this memory
system.acctest.convolution0_spm.num_reads::.acctest.elem_matrix0_dma        61440                       # Number of read requests responded to by this memory
system.acctest.convolution0_spm.num_reads::total     24240240                       # Number of read requests responded to by this memory
system.acctest.convolution0_spm.num_writes::.acctest.convolution0.system.acctest.convolution0       491520                       # Number of write requests responded to by this memory
system.acctest.convolution0_spm.num_writes::.acctest.convolution0_dma        61560                       # Number of write requests responded to by this memory
system.acctest.convolution0_spm.num_writes::total       553080                       # Number of write requests responded to by this memory
system.acctest.convolution0_spm.bw_read::.acctest.convolution0.system.acctest.convolution0   1955286967                       # Total read bandwidth from this memory (bytes/s)
system.acctest.convolution0_spm.bw_read::.acctest.convolution0_dma     39849413                       # Total read bandwidth from this memory (bytes/s)
system.acctest.convolution0_spm.bw_read::.acctest.elem_matrix0_dma     39849413                       # Total read bandwidth from this memory (bytes/s)
system.acctest.convolution0_spm.bw_read::total   2034985794                       # Total read bandwidth from this memory (bytes/s)
system.acctest.convolution0_spm.bw_write::.acctest.convolution0.system.acctest.convolution0     39849413                       # Write bandwidth from this memory (bytes/s)
system.acctest.convolution0_spm.bw_write::.acctest.convolution0_dma     39910219                       # Write bandwidth from this memory (bytes/s)
system.acctest.convolution0_spm.bw_write::total     79759632                       # Write bandwidth from this memory (bytes/s)
system.acctest.convolution0_spm.bw_total::.acctest.convolution0.system.acctest.convolution0   1995136380                       # Total bandwidth to/from this memory (bytes/s)
system.acctest.convolution0_spm.bw_total::.acctest.convolution0_dma     79759632                       # Total bandwidth to/from this memory (bytes/s)
system.acctest.convolution0_spm.bw_total::.acctest.elem_matrix0_dma     39849413                       # Total bandwidth to/from this memory (bytes/s)
system.acctest.convolution0_spm.bw_total::total   2114745426                       # Total bandwidth to/from this memory (bytes/s)
system.acctest.elem_matrix0_dma.pwrStateResidencyTicks::UNDEFINED 104779452500                       # Cumulative time (in ticks) in various power states
system.acctest.grayscale0.pwrStateResidencyTicks::UNDEFINED 104779452500                       # Cumulative time (in ticks) in various power states
system.acctest.canny_non_max0.pwrStateResidencyTicks::UNDEFINED 104779452500                       # Cumulative time (in ticks) in various power states
system.acctest.elem_matrix0_spm.pwrStateResidencyTicks::UNDEFINED 104779452500                       # Cumulative time (in ticks) in various power states
system.acctest.elem_matrix0_spm.bytes_read::.acctest.convolution0_dma      1769472                       # Number of bytes read from this memory
system.acctest.elem_matrix0_spm.bytes_read::.acctest.elem_matrix0.system.acctest.elem_matrix0    137756672                       # Number of bytes read from this memory
system.acctest.elem_matrix0_spm.bytes_read::.acctest.elem_matrix0_dma     70778880                       # Number of bytes read from this memory
system.acctest.elem_matrix0_spm.bytes_read::total    210305024                       # Number of bytes read from this memory
system.acctest.elem_matrix0_spm.bytes_written::.acctest.elem_matrix0.system.acctest.elem_matrix0     79626240                       # Number of bytes written to this memory
system.acctest.elem_matrix0_spm.bytes_written::.acctest.elem_matrix0_dma    125632512                       # Number of bytes written to this memory
system.acctest.elem_matrix0_spm.bytes_written::total    205258752                       # Number of bytes written to this memory
system.acctest.elem_matrix0_spm.num_reads::.acctest.convolution0_dma        55296                       # Number of read requests responded to by this memory
system.acctest.elem_matrix0_spm.num_reads::.acctest.elem_matrix0.system.acctest.elem_matrix0     34439168                       # Number of read requests responded to by this memory
system.acctest.elem_matrix0_spm.num_reads::.acctest.elem_matrix0_dma      2211840                       # Number of read requests responded to by this memory
system.acctest.elem_matrix0_spm.num_reads::total     36706304                       # Number of read requests responded to by this memory
system.acctest.elem_matrix0_spm.num_writes::.acctest.elem_matrix0.system.acctest.elem_matrix0     19906560                       # Number of write requests responded to by this memory
system.acctest.elem_matrix0_spm.num_writes::.acctest.elem_matrix0_dma      3926016                       # Number of write requests responded to by this memory
system.acctest.elem_matrix0_spm.num_writes::total     23832576                       # Number of write requests responded to by this memory
system.acctest.elem_matrix0_spm.bw_read::.acctest.convolution0_dma     35864472                       # Total read bandwidth from this memory (bytes/s)
system.acctest.elem_matrix0_spm.bw_read::.acctest.elem_matrix0.system.acctest.elem_matrix0   2792115569                       # Total read bandwidth from this memory (bytes/s)
system.acctest.elem_matrix0_spm.bw_read::.acctest.elem_matrix0_dma   1434578884                       # Total read bandwidth from this memory (bytes/s)
system.acctest.elem_matrix0_spm.bw_read::total   4262558925                       # Total read bandwidth from this memory (bytes/s)
system.acctest.elem_matrix0_spm.bw_write::.acctest.elem_matrix0.system.acctest.elem_matrix0   1613901245                       # Write bandwidth from this memory (bytes/s)
system.acctest.elem_matrix0_spm.bw_write::.acctest.elem_matrix0_dma   2546377520                       # Write bandwidth from this memory (bytes/s)
system.acctest.elem_matrix0_spm.bw_write::total   4160278764                       # Write bandwidth from this memory (bytes/s)
system.acctest.elem_matrix0_spm.bw_total::.acctest.convolution0_dma     35864472                       # Total bandwidth to/from this memory (bytes/s)
system.acctest.elem_matrix0_spm.bw_total::.acctest.elem_matrix0.system.acctest.elem_matrix0   4406016814                       # Total bandwidth to/from this memory (bytes/s)
system.acctest.elem_matrix0_spm.bw_total::.acctest.elem_matrix0_dma   3980956404                       # Total bandwidth to/from this memory (bytes/s)
system.acctest.elem_matrix0_spm.bw_total::total   8422837690                       # Total bandwidth to/from this memory (bytes/s)
system.acctest.convolution0_dma.pwrStateResidencyTicks::UNDEFINED 104779452500                       # Cumulative time (in ticks) in various power states
system.acctest.convolution1_spm.pwrStateResidencyTicks::UNDEFINED 104779452500                       # Cumulative time (in ticks) in various power states
system.acctest.elem_matrix3_dma.pwrStateResidencyTicks::UNDEFINED 104779452500                       # Cumulative time (in ticks) in various power states
system.acctest.edge_tracking0_spm.pwrStateResidencyTicks::UNDEFINED 104779452500                       # Cumulative time (in ticks) in various power states
system.acctest.canny_non_max0_spm.pwrStateResidencyTicks::UNDEFINED 104779452500                       # Cumulative time (in ticks) in various power states
system.acctest.canny_non_max0_dma.pwrStateResidencyTicks::UNDEFINED 104779452500                       # Cumulative time (in ticks) in various power states
system.acctest.convolution1_dma.pwrStateResidencyTicks::UNDEFINED 104779452500                       # Cumulative time (in ticks) in various power states
system.acctest.elem_matrix1_spm.pwrStateResidencyTicks::UNDEFINED 104779452500                       # Cumulative time (in ticks) in various power states
system.acctest.elem_matrix2_dma.pwrStateResidencyTicks::UNDEFINED 104779452500                       # Cumulative time (in ticks) in various power states
system.acctest.harris_non_max0.pwrStateResidencyTicks::UNDEFINED 104779452500                       # Cumulative time (in ticks) in various power states
system.acctest.edge_tracking0_dma.pwrStateResidencyTicks::UNDEFINED 104779452500                       # Cumulative time (in ticks) in various power states
system.acctest.harris_non_max0_dma.pwrStateResidencyTicks::UNDEFINED 104779452500                       # Cumulative time (in ticks) in various power states
system.acctest.elem_matrix1.pwrStateResidencyTicks::UNDEFINED 104779452500                       # Cumulative time (in ticks) in various power states
system.acctest.elem_matrix0.pwrStateResidencyTicks::UNDEFINED 104779452500                       # Cumulative time (in ticks) in various power states
system.acctest.elem_matrix3.pwrStateResidencyTicks::UNDEFINED 104779452500                       # Cumulative time (in ticks) in various power states
system.acctest.elem_matrix2.pwrStateResidencyTicks::UNDEFINED 104779452500                       # Cumulative time (in ticks) in various power states
system.clk_domain.clock                          1000                       # Clock period in ticks
system.realview.hdlcd.pwrStateResidencyTicks::UNDEFINED 104779452500                       # Cumulative time (in ticks) in various power states
system.realview.realview_io.pwrStateResidencyTicks::UNDEFINED 104779452500                       # Cumulative time (in ticks) in various power states
system.realview.bootmem.pwrStateResidencyTicks::UNDEFINED 104779452500                       # Cumulative time (in ticks) in various power states
system.realview.bootmem.bytes_read::.cpu.inst       932800                       # Number of bytes read from this memory
system.realview.bootmem.bytes_read::.cpu.data         3328                       # Number of bytes read from this memory
system.realview.bootmem.bytes_read::total       936128                       # Number of bytes read from this memory
system.realview.bootmem.bytes_inst_read::.cpu.inst       932800                       # Number of instructions bytes read from this memory
system.realview.bootmem.bytes_inst_read::total       932800                       # Number of instructions bytes read from this memory
system.realview.bootmem.num_reads::.cpu.inst        14575                       # Number of read requests responded to by this memory
system.realview.bootmem.num_reads::.cpu.data           52                       # Number of read requests responded to by this memory
system.realview.bootmem.num_reads::total        14627                       # Number of read requests responded to by this memory
system.realview.bootmem.bw_read::.cpu.inst     18906419                       # Total read bandwidth from this memory (bytes/s)
system.realview.bootmem.bw_read::.cpu.data        67453                       # Total read bandwidth from this memory (bytes/s)
system.realview.bootmem.bw_read::total       18973873                       # Total read bandwidth from this memory (bytes/s)
system.realview.bootmem.bw_inst_read::.cpu.inst     18906419                       # Instruction read bandwidth from this memory (bytes/s)
system.realview.bootmem.bw_inst_read::total     18906419                       # Instruction read bandwidth from this memory (bytes/s)
system.realview.bootmem.bw_total::.cpu.inst     18906419                       # Total bandwidth to/from this memory (bytes/s)
system.realview.bootmem.bw_total::.cpu.data        67453                       # Total bandwidth to/from this memory (bytes/s)
system.realview.bootmem.bw_total::total      18973873                       # Total bandwidth to/from this memory (bytes/s)
system.realview.pci_host.pwrStateResidencyTicks::UNDEFINED 104779452500                       # Cumulative time (in ticks) in various power states
system.realview.rtc.pwrStateResidencyTicks::UNDEFINED 104779452500                       # Cumulative time (in ticks) in various power states
system.realview.uart.pwrStateResidencyTicks::UNDEFINED 104779452500                       # Cumulative time (in ticks) in various power states
system.realview.gicv2m.pwrStateResidencyTicks::UNDEFINED 104779452500                       # Cumulative time (in ticks) in various power states
system.realview.mcc.osc_mcc.clock               20000                       # Clock period in ticks
system.realview.mcc.osc_peripheral.clock        41667                       # Clock period in ticks
system.realview.mcc.osc_clcd.clock              42105                       # Clock period in ticks
system.realview.mcc.osc_system_bus.clock        41667                       # Clock period in ticks
system.realview.dcc.osc_smb.clock               20000                       # Clock period in ticks
system.realview.dcc.osc_hsbm.clock              25000                       # Clock period in ticks
system.realview.dcc.osc_ddr.clock               25000                       # Clock period in ticks
system.realview.dcc.osc_cpu.clock               16667                       # Clock period in ticks
system.realview.dcc.osc_sys.clock               16667                       # Clock period in ticks
system.realview.dcc.osc_pxl.clock               42105                       # Clock period in ticks
system.realview.generic_timer.pwrStateResidencyTicks::UNDEFINED 104779452500                       # Cumulative time (in ticks) in various power states
system.realview.kmi1.pwrStateResidencyTicks::UNDEFINED 104779452500                       # Cumulative time (in ticks) in various power states
system.realview.kmi0.pwrStateResidencyTicks::UNDEFINED 104779452500                       # Cumulative time (in ticks) in various power states
system.realview.gic.pwrStateResidencyTicks::UNDEFINED 104779452500                       # Cumulative time (in ticks) in various power states
system.realview.clock24MHz.clock                41667                       # Clock period in ticks
system.realview.clock24MHz.voltage_domain.voltage     3.300000                       # Voltage in Volts
system.realview.energy_ctrl.pwrStateResidencyTicks::UNDEFINED 104779452500                       # Cumulative time (in ticks) in various power states
system.realview.vio1.pwrStateResidencyTicks::UNDEFINED 104779452500                       # Cumulative time (in ticks) in various power states
system.realview.vio0.pwrStateResidencyTicks::UNDEFINED 104779452500                       # Cumulative time (in ticks) in various power states
system.realview.vgic.pwrStateResidencyTicks::UNDEFINED 104779452500                       # Cumulative time (in ticks) in various power states
system.pci_ide.pwrStateResidencyTicks::UNDEFINED 104779452500                       # Cumulative time (in ticks) in various power states
system.cpu_voltage_domain.voltage                   1                       # Voltage in Volts
system.mem_ctrls.pwrStateResidencyTicks::UNDEFINED 104779452500                       # Cumulative time (in ticks) in various power states
system.mem_ctrls.bytes_read::.acctest.convolution0_dma         3000                       # Number of bytes read from this memory
system.mem_ctrls.bytes_read::.acctest.elem_matrix0_dma    122683392                       # Number of bytes read from this memory
system.mem_ctrls.bytes_read::.acctest.isp0_dma        56908                       # Number of bytes read from this memory
system.mem_ctrls.bytes_read::.cpu.data         301440                       # Number of bytes read from this memory
system.mem_ctrls.bytes_read::total          123044740                       # Number of bytes read from this memory
system.mem_ctrls.bytes_written::.writebacks       215744                       # Number of bytes written to this memory
system.mem_ctrls.bytes_written::.acctest.convolution0_dma      1966080                       # Number of bytes written to this memory
system.mem_ctrls.bytes_written::.acctest.elem_matrix0_dma     70778880                       # Number of bytes written to this memory
system.mem_ctrls.bytes_written::.acctest.grayscale0_dma       196608                       # Number of bytes written to this memory
system.mem_ctrls.bytes_written::total        73157312                       # Number of bytes written to this memory
system.mem_ctrls.num_reads::.acctest.convolution0_dma           60                       # Number of read requests responded to by this memory
system.mem_ctrls.num_reads::.acctest.elem_matrix0_dma      1916928                       # Number of read requests responded to by this memory
system.mem_ctrls.num_reads::.acctest.isp0_dma          892                       # Number of read requests responded to by this memory
system.mem_ctrls.num_reads::.cpu.data            4710                       # Number of read requests responded to by this memory
[...]
system.cpu.icache.ReadReq_accesses::.cpu.inst      1593104                       # number of ReadReq accesses(hits+misses)
system.cpu.icache.ReadReq_accesses::total      1593104                       # number of ReadReq accesses(hits+misses)
system.cpu.icache.ReadReq_miss_rate::.cpu.inst     0.009150                       # miss rate for ReadReq accesses
system.cpu.icache.ReadReq_miss_rate::total     0.009150                       # miss rate for ReadReq accesses
system.cpu.icache.ReadReq_avg_miss_latency::.cpu.inst 43437.307059                       # average ReadReq miss latency
system.cpu.icache.ReadReq_avg_miss_latency::total 43437.307059                       # average ReadReq miss latency
system.cpu.icache.ReadReq_mshr_misses::.cpu.inst        14577                       # number of ReadReq MSHR misses
system.cpu.icache.ReadReq_mshr_misses::total        14577                       # number of ReadReq MSHR misses
system.cpu.icache.ReadReq_mshr_miss_latency::.cpu.inst    610658125                       # number of ReadReq MSHR miss cycles
system.cpu.icache.ReadReq_mshr_miss_latency::total    610658125                       # number of ReadReq MSHR miss cycles
system.cpu.icache.ReadReq_mshr_miss_rate::.cpu.inst     0.009150                       # mshr miss rate for ReadReq accesses
system.cpu.icache.ReadReq_mshr_miss_rate::total     0.009150                       # mshr miss rate for ReadReq accesses
system.cpu.icache.ReadReq_avg_mshr_miss_latency::.cpu.inst 41891.893051                       # average ReadReq mshr miss latency
system.cpu.icache.ReadReq_avg_mshr_miss_latency::total 41891.893051                       # average ReadReq mshr miss latency
system.cpu.icache.tags.pwrStateResidencyTicks::UNDEFINED 104780595000                       # Cumulative time (in ticks) in various power states
system.cpu.icache.tags.tagsinuse           394.550627                       # Cycle average of tags in use
system.cpu.icache.tags.total_refs            22365911                       # Total number of references to valid blocks.
system.cpu.icache.tags.sampled_refs             14785                       # Sample count of references to valid blocks.
system.cpu.icache.tags.avg_refs           1512.743389                       # Average number of references to valid blocks.
system.cpu.icache.tags.warmup_cycle                 0                       # Cycle when the warmup percentage was hit.
system.cpu.icache.tags.occ_blocks::.cpu.inst   394.550627                       # Average occupied blocks per requestor
system.cpu.icache.tags.occ_percent::.cpu.inst     0.770607                       # Average percentage of cache occupancy
system.cpu.icache.tags.occ_percent::total     0.770607                       # Average percentage of cache occupancy
system.cpu.icache.tags.occ_task_id_blocks::1024          398                       # Occupied blocks per task id
system.cpu.icache.tags.age_task_id_blocks_1024::0           12                       # Occupied blocks per task id
system.cpu.icache.tags.age_task_id_blocks_1024::1            9                       # Occupied blocks per task id
system.cpu.icache.tags.age_task_id_blocks_1024::3           11                       # Occupied blocks per task id
system.cpu.icache.tags.age_task_id_blocks_1024::4          366                       # Occupied blocks per task id
system.cpu.icache.tags.occ_task_id_percent::1024     0.777344                       # Percentage of cache occupancy per task id
system.cpu.icache.tags.tag_accesses           3200785                       # Number of tag accesses
system.cpu.icache.tags.data_accesses          3200785                       # Number of data accesses
system.cpu.dtb.walker.pwrStateResidencyTicks::UNDEFINED 104780595000                       # Cumulative time (in ticks) in various power states
system.cpu.dtb.stage2_mmu.stage2_tlb.walker.pwrStateResidencyTicks::UNDEFINED 104780595000                       # Cumulative time (in ticks) in various power states
system.cpu.dcache.pwrStateResidencyTicks::UNDEFINED 104780595000                       # Cumulative time (in ticks) in various power states
system.cpu.dcache.demand_hits::.cpu.data      1394525                       # number of demand (read+write) hits
system.cpu.dcache.demand_hits::total          1394525                       # number of demand (read+write) hits
system.cpu.dcache.overall_hits::.cpu.data      1394525                       # number of overall hits
system.cpu.dcache.overall_hits::total         1394525                       # number of overall hits
system.cpu.dcache.demand_misses::.cpu.data         6177                       # number of demand (read+write) misses
system.cpu.dcache.demand_misses::total           6177                       # number of demand (read+write) misses
system.cpu.dcache.overall_misses::.cpu.data         6177                       # number of overall misses
system.cpu.dcache.overall_misses::total          6177                       # number of overall misses
system.cpu.dcache.demand_miss_latency::.cpu.data    451158125                       # number of demand (read+write) miss cycles
system.cpu.dcache.demand_miss_latency::total    451158125                       # number of demand (read+write) miss cycles
system.cpu.dcache.overall_miss_latency::.cpu.data    451158125                       # number of overall miss cycles
system.cpu.dcache.overall_miss_latency::total    451158125                       # number of overall miss cycles
system.cpu.dcache.demand_accesses::.cpu.data      1400702                       # number of demand (read+write) accesses
system.cpu.dcache.demand_accesses::total      1400702                       # number of demand (read+write) accesses
system.cpu.dcache.overall_accesses::.cpu.data      1400702                       # number of overall (read+write) accesses
system.cpu.dcache.overall_accesses::total      1400702                       # number of overall (read+write) accesses
system.cpu.dcache.demand_miss_rate::.cpu.data     0.004410                       # miss rate for demand accesses
system.cpu.dcache.demand_miss_rate::total     0.004410                       # miss rate for demand accesses
system.cpu.dcache.overall_miss_rate::.cpu.data     0.004410                       # miss rate for overall accesses
system.cpu.dcache.overall_miss_rate::total     0.004410                       # miss rate for overall accesses
system.cpu.dcache.demand_avg_miss_latency::.cpu.data 73038.388376                       # average overall miss latency
system.cpu.dcache.demand_avg_miss_latency::total 73038.388376                       # average overall miss latency
system.cpu.dcache.overall_avg_miss_latency::.cpu.data 73038.388376                       # average overall miss latency
system.cpu.dcache.overall_avg_miss_latency::total 73038.388376                       # average overall miss latency
system.cpu.dcache.blocked_cycles::no_mshrs            0                       # number of cycles access was blocked
system.cpu.dcache.blocked_cycles::no_targets            0                       # number of cycles access was blocked
system.cpu.dcache.blocked::no_mshrs                 0                       # number of cycles access was blocked
system.cpu.dcache.blocked::no_targets               0                       # number of cycles access was blocked
system.cpu.dcache.avg_blocked_cycles::no_mshrs          nan                       # average number of cycles each access was blocked
system.cpu.dcache.avg_blocked_cycles::no_targets          nan                       # average number of cycles each access was blocked
system.cpu.dcache.writebacks::.writebacks         3371                       # number of writebacks
system.cpu.dcache.writebacks::total              3371                       # number of writebacks
system.cpu.dcache.demand_mshr_hits::.cpu.data         1415                       # number of demand (read+write) MSHR hits
system.cpu.dcache.demand_mshr_hits::total         1415                       # number of demand (read+write) MSHR hits
system.cpu.dcache.overall_mshr_hits::.cpu.data         1415                       # number of overall MSHR hits
system.cpu.dcache.overall_mshr_hits::total         1415                       # number of overall MSHR hits
system.cpu.dcache.demand_mshr_misses::.cpu.data         4762                       # number of demand (read+write) MSHR misses
system.cpu.dcache.demand_mshr_misses::total         4762                       # number of demand (read+write) MSHR misses
system.cpu.dcache.overall_mshr_misses::.cpu.data         4762                       # number of overall MSHR misses
system.cpu.dcache.overall_mshr_misses::total         4762                       # number of overall MSHR misses
system.cpu.dcache.overall_mshr_uncacheable_misses::.cpu.data        42854                       # number of overall MSHR uncacheable misses
system.cpu.dcache.overall_mshr_uncacheable_misses::total        42854                       # number of overall MSHR uncacheable misses
system.cpu.dcache.demand_mshr_miss_latency::.cpu.data    347730000                       # number of demand (read+write) MSHR miss cycles
system.cpu.dcache.demand_mshr_miss_latency::total    347730000                       # number of demand (read+write) MSHR miss cycles
system.cpu.dcache.overall_mshr_miss_latency::.cpu.data    347730000                       # number of overall MSHR miss cycles
system.cpu.dcache.overall_mshr_miss_latency::total    347730000                       # number of overall MSHR miss cycles
system.cpu.dcache.overall_mshr_uncacheable_latency::.cpu.data     94449000                       # number of overall MSHR uncacheable cycles
system.cpu.dcache.overall_mshr_uncacheable_latency::total     94449000                       # number of overall MSHR uncacheable cycles
system.cpu.dcache.demand_mshr_miss_rate::.cpu.data     0.003400                       # mshr miss rate for demand accesses
system.cpu.dcache.demand_mshr_miss_rate::total     0.003400                       # mshr miss rate for demand accesses
system.cpu.dcache.overall_mshr_miss_rate::.cpu.data     0.003400                       # mshr miss rate for overall accesses
system.cpu.dcache.overall_mshr_miss_rate::total     0.003400                       # mshr miss rate for overall accesses
system.cpu.dcache.demand_avg_mshr_miss_latency::.cpu.data 73021.839563                       # average overall mshr miss latency
system.cpu.dcache.demand_avg_mshr_miss_latency::total 73021.839563                       # average overall mshr miss latency
system.cpu.dcache.overall_avg_mshr_miss_latency::.cpu.data 73021.839563                       # average overall mshr miss latency
system.cpu.dcache.overall_avg_mshr_miss_latency::total 73021.839563                       # average overall mshr miss latency
system.cpu.dcache.overall_avg_mshr_uncacheable_latency::.cpu.data  2203.971625                       # average overall mshr uncacheable latency
system.cpu.dcache.overall_avg_mshr_uncacheable_latency::total  2203.971625                       # average overall mshr uncacheable latency
system.cpu.dcache.replacements                   4763                       # number of replacements
system.cpu.dcache.ReadReq_hits::.cpu.data       872006                       # number of ReadReq hits
system.cpu.dcache.ReadReq_hits::total          872006                       # number of ReadReq hits
system.cpu.dcache.ReadReq_misses::.cpu.data         3231                       # number of ReadReq misses
system.cpu.dcache.ReadReq_misses::total          3231                       # number of ReadReq misses
system.cpu.dcache.ReadReq_miss_latency::.cpu.data    243715125                       # number of ReadReq miss cycles
system.cpu.dcache.ReadReq_miss_latency::total    243715125                       # number of ReadReq miss cycles
system.cpu.dcache.ReadReq_accesses::.cpu.data       875237                       # number of ReadReq accesses(hits+misses)
system.cpu.dcache.ReadReq_accesses::total       875237                       # number of ReadReq accesses(hits+misses)
system.cpu.dcache.ReadReq_miss_rate::.cpu.data     0.003692                       # miss rate for ReadReq accesses
system.cpu.dcache.ReadReq_miss_rate::total     0.003692                       # miss rate for ReadReq accesses
system.cpu.dcache.ReadReq_avg_miss_latency::.cpu.data 75430.246054                       # average ReadReq miss latency
system.cpu.dcache.ReadReq_avg_miss_latency::total 75430.246054                       # average ReadReq miss latency
system.cpu.dcache.ReadReq_mshr_hits::.cpu.data            8                       # number of ReadReq MSHR hits
system.cpu.dcache.ReadReq_mshr_hits::total            8                       # number of ReadReq MSHR hits
system.cpu.dcache.ReadReq_mshr_misses::.cpu.data         3223                       # number of ReadReq MSHR misses
system.cpu.dcache.ReadReq_mshr_misses::total         3223                       # number of ReadReq MSHR misses
system.cpu.dcache.ReadReq_mshr_uncacheable::.cpu.data         4347                       # number of ReadReq MSHR uncacheable
system.cpu.dcache.ReadReq_mshr_uncacheable::total         4347                       # number of ReadReq MSHR uncacheable
system.cpu.dcache.ReadReq_mshr_miss_latency::.cpu.data    238185375                       # number of ReadReq MSHR miss cycles
system.cpu.dcache.ReadReq_mshr_miss_latency::total    238185375                       # number of ReadReq MSHR miss cycles
system.cpu.dcache.ReadReq_mshr_uncacheable_latency::.cpu.data     94449000                       # number of ReadReq MSHR uncacheable cycles
system.cpu.dcache.ReadReq_mshr_uncacheable_latency::total     94449000                       # number of ReadReq MSHR uncacheable cycles
system.cpu.dcache.ReadReq_mshr_miss_rate::.cpu.data     0.003682                       # mshr miss rate for ReadReq accesses
system.cpu.dcache.ReadReq_mshr_miss_rate::total     0.003682                       # mshr miss rate for ReadReq accesses
system.cpu.dcache.ReadReq_avg_mshr_miss_latency::.cpu.data 73901.760782                       # average ReadReq mshr miss latency
system.cpu.dcache.ReadReq_avg_mshr_miss_latency::total 73901.760782                       # average ReadReq mshr miss latency
system.cpu.dcache.ReadReq_avg_mshr_uncacheable_latency::.cpu.data 21727.398206                       # average ReadReq mshr uncacheable latency
system.cpu.dcache.ReadReq_avg_mshr_uncacheable_latency::total 21727.398206                       # average ReadReq mshr uncacheable latency
system.cpu.dcache.WriteReq_hits::.cpu.data       522519                       # number of WriteReq hits
system.cpu.dcache.WriteReq_hits::total         522519                       # number of WriteReq hits
system.cpu.dcache.WriteReq_misses::.cpu.data         2946                       # number of WriteReq misses
system.cpu.dcache.WriteReq_misses::total         2946                       # number of WriteReq misses
system.cpu.dcache.WriteReq_miss_latency::.cpu.data    207443000                       # number of WriteReq miss cycles
system.cpu.dcache.WriteReq_miss_latency::total    207443000                       # number of WriteReq miss cycles
system.cpu.dcache.WriteReq_accesses::.cpu.data       525465                       # number of WriteReq accesses(hits+misses)
system.cpu.dcache.WriteReq_accesses::total       525465                       # number of WriteReq accesses(hits+misses)
system.cpu.dcache.WriteReq_miss_rate::.cpu.data     0.005606                       # miss rate for WriteReq accesses
system.cpu.dcache.WriteReq_miss_rate::total     0.005606                       # miss rate for WriteReq accesses
system.cpu.dcache.WriteReq_avg_miss_latency::.cpu.data 70415.139172                       # average WriteReq miss latency
system.cpu.dcache.WriteReq_avg_miss_latency::total 70415.139172                       # average WriteReq miss latency
system.cpu.dcache.WriteReq_mshr_hits::.cpu.data         1407                       # number of WriteReq MSHR hits
system.cpu.dcache.WriteReq_mshr_hits::total         1407                       # number of WriteReq MSHR hits
system.cpu.dcache.WriteReq_mshr_misses::.cpu.data         1539                       # number of WriteReq MSHR misses
system.cpu.dcache.WriteReq_mshr_misses::total         1539                       # number of WriteReq MSHR misses
system.cpu.dcache.WriteReq_mshr_uncacheable::.cpu.data        38507                       # number of WriteReq MSHR uncacheable
system.cpu.dcache.WriteReq_mshr_uncacheable::total        38507                       # number of WriteReq MSHR uncacheable
system.cpu.dcache.WriteReq_mshr_miss_latency::.cpu.data    109544625                       # number of WriteReq MSHR miss cycles
system.cpu.dcache.WriteReq_mshr_miss_latency::total    109544625                       # number of WriteReq MSHR miss cycles
system.cpu.dcache.WriteReq_mshr_miss_rate::.cpu.data     0.002929                       # mshr miss rate for WriteReq accesses
system.cpu.dcache.WriteReq_mshr_miss_rate::total     0.002929                       # mshr miss rate for WriteReq accesses
system.cpu.dcache.WriteReq_avg_mshr_miss_latency::.cpu.data 71179.093567                       # average WriteReq mshr miss latency
system.cpu.dcache.WriteReq_avg_mshr_miss_latency::total 71179.093567                       # average WriteReq mshr miss latency
system.cpu.dcache.tags.pwrStateResidencyTicks::UNDEFINED 104780595000                       # Cumulative time (in ticks) in various power states
system.cpu.dcache.tags.tagsinuse                  512                       # Cycle average of tags in use
system.cpu.dcache.tags.total_refs             1401887                       # Total number of references to valid blocks.
system.cpu.dcache.tags.sampled_refs              5275                       # Sample count of references to valid blocks.
system.cpu.dcache.tags.avg_refs            265.760569                       # Average number of references to valid blocks.
system.cpu.dcache.tags.warmup_cycle                 0                       # Cycle when the warmup percentage was hit.
system.cpu.dcache.tags.occ_blocks::.cpu.data          512                       # Average occupied blocks per requestor
system.cpu.dcache.tags.occ_percent::.cpu.data            1                       # Average percentage of cache occupancy
system.cpu.dcache.tags.occ_percent::total            1                       # Average percentage of cache occupancy
system.cpu.dcache.tags.occ_task_id_blocks::1024          512                       # Occupied blocks per task id
system.cpu.dcache.tags.age_task_id_blocks_1024::0            7                       # Occupied blocks per task id
system.cpu.dcache.tags.age_task_id_blocks_1024::1           14                       # Occupied blocks per task id
system.cpu.dcache.tags.age_task_id_blocks_1024::2           75                       # Occupied blocks per task id
system.cpu.dcache.tags.age_task_id_blocks_1024::3          345                       # Occupied blocks per task id
system.cpu.dcache.tags.age_task_id_blocks_1024::4           71                       # Occupied blocks per task id
system.cpu.dcache.tags.occ_task_id_percent::1024            1                       # Percentage of cache occupancy per task id
system.cpu.dcache.tags.tag_accesses           5607571                       # Number of tag accesses
system.cpu.dcache.tags.data_accesses          5607571                       # Number of data accesses
system.cpu.itb.walker.pwrStateResidencyTicks::UNDEFINED 104780595000                       # Cumulative time (in ticks) in various power states
system.cpu.itb.stage2_mmu.stage2_tlb.walker.pwrStateResidencyTicks::UNDEFINED 104780595000                       # Cumulative time (in ticks) in various power states

---------- End Simulation Statistics   ----------
