
---------- Begin Simulation Statistics ----------
final_tick                                36629261250                       # Number of ticks from beginning of simulation (restored from checkpoints and never reset)
host_inst_rate                                    322                       # Simulator instruction rate (inst/s)
host_mem_usage                               16583288                       # Number of bytes of host memory used
host_op_rate                                      329                       # Simulator op (including micro ops) rate (op/s)
host_seconds                                 91555.46                       # Real time elapsed on the host
host_tick_rate                                 248364                       # Simulator tick rate (ticks/s)
sim_freq                                 1000000000000                       # Frequency of simulated ticks
sim_insts                                    29436217                       # Number of instructions simulated
sim_ops                                      30160678                       # Number of ops (including micro ops) simulated
sim_seconds                                  0.022739                       # Number of seconds simulated
sim_ticks                                 22739093750                       # Number of ticks simulated
system.acctest.coherency_bus.snoop_filter.hit_multi_requests            0                       # Number of requests hitting in the snoop filter with multiple (>1) holders of the requested data.
system.acctest.coherency_bus.snoop_filter.hit_multi_snoops            0                       # Number of snoops hitting in the snoop filter with multiple (>1) holders of the requested data.
system.acctest.coherency_bus.snoop_filter.hit_single_requests            0                       # Number of requests hitting in the snoop filter with a single holder of the requested data.
system.acctest.coherency_bus.snoop_filter.hit_single_snoops            0                       # Number of snoops hitting in the snoop filter with a single holder of the requested data.
system.acctest.coherency_bus.snoop_filter.tot_requests            0                       # Total number of requests made to the snoop filter.
system.acctest.coherency_bus.snoop_filter.tot_snoops            0                       # Total number of snoops made to the snoop filter.
system.cf0.dma_read_bytes                           0                       # Number of bytes transfered via DMA reads (not PRD).
system.cf0.dma_read_full_pages                      0                       # Number of full page size DMA reads (not PRD).
system.cf0.dma_read_txs                             0                       # Number of DMA read transactions (not PRD).
system.cf0.dma_write_bytes                          0                       # Number of bytes transfered via DMA writes.
system.cf0.dma_write_full_pages                     0                       # Number of full page size DMA writes.
system.cf0.dma_write_txs                            0                       # Number of DMA write transactions.
system.cpu.branchPred.BTBCorrect                    0                       # Number of correct BTB predictions (this stat may not work properly.
system.cpu.branchPred.BTBHitPct             98.216802                       # BTB Hit Percentage
system.cpu.branchPred.BTBHits                 1041875                       # Number of BTB hits
system.cpu.branchPred.BTBLookups              1060791                       # Number of BTB lookups
system.cpu.branchPred.RASInCorrect                288                       # Number of incorrect RAS predictions.
system.cpu.branchPred.condIncorrect             15860                       # Number of conditional branches incorrect
system.cpu.branchPred.condPredicted           1087987                       # Number of conditional branches predicted
system.cpu.branchPred.indirectHits               9028                       # Number of indirect target hits.
system.cpu.branchPred.indirectLookups           10821                       # Number of indirect predictor lookups.
system.cpu.branchPred.indirectMisses             1793                       # Number of indirect misses.
system.cpu.branchPred.lookups                 1183576                       # Number of BP lookups
system.cpu.branchPred.usedRAS                   35276                       # Number of times the RAS was used to get a target.
system.cpu.branchPredindirectMispredicted         2875                       # Number of mispredicted indirect branches.
system.cpu.committedInsts                     6998177                       # Number of instructions committed
system.cpu.committedOps                       7102769                       # Number of ops (including micro ops) committed
system.cpu.cpi                               3.250859                       # CPI: cycles per instruction
system.cpu.discardedOps                         42334                       # Number of ops (including micro ops) which were discarded before commit
system.cpu.dtb.accesses                             0                       # DTB accesses
system.cpu.dtb.align_faults                         0                       # Number of TLB faults due to alignment restrictions
system.cpu.dtb.domain_faults                        0                       # Number of TLB faults due to domain restrictions
system.cpu.dtb.flush_entries                        0                       # Number of entries that have been flushed from TLB
system.cpu.dtb.flush_tlb                            0                       # Number of times complete TLB was flushed
system.cpu.dtb.flush_tlb_asid                       0                       # Number of times TLB was flushed by ASID
system.cpu.dtb.flush_tlb_mva                        0                       # Number of times TLB was flushed by MVA
system.cpu.dtb.flush_tlb_mva_asid                   0                       # Number of times TLB was flushed by MVA & ASID
system.cpu.dtb.hits                                 0                       # DTB hits
system.cpu.dtb.inst_accesses                        0                       # ITB inst accesses
system.cpu.dtb.inst_hits                            0                       # ITB inst hits
system.cpu.dtb.inst_misses                          0                       # ITB inst misses
system.cpu.dtb.misses                               0                       # DTB misses
system.cpu.dtb.perms_faults                         0                       # Number of TLB faults due to permissions restrictions
system.cpu.dtb.prefetch_faults                      0                       # Number of TLB faults due to prefetch
system.cpu.dtb.read_accesses                        0                       # DTB read accesses
system.cpu.dtb.read_hits                            0                       # DTB read hits
system.cpu.dtb.read_misses                          0                       # DTB read misses
system.cpu.dtb.stage2_mmu.stage2_tlb.accesses            0                       # DTB accesses
system.cpu.dtb.stage2_mmu.stage2_tlb.align_faults            0                       # Number of TLB faults due to alignment restrictions
system.cpu.dtb.stage2_mmu.stage2_tlb.domain_faults            0                       # Number of TLB faults due to domain restrictions
system.cpu.dtb.stage2_mmu.stage2_tlb.flush_entries            0                       # Number of entries that have been flushed from TLB
system.cpu.dtb.stage2_mmu.stage2_tlb.flush_tlb            0                       # Number of times complete TLB was flushed
system.cpu.dtb.stage2_mmu.stage2_tlb.flush_tlb_asid            0                       # Number of times TLB was flushed by ASID
system.cpu.dtb.stage2_mmu.stage2_tlb.flush_tlb_mva            0                       # Number of times TLB was flushed by MVA
system.cpu.dtb.stage2_mmu.stage2_tlb.flush_tlb_mva_asid            0                       # Number of times TLB was flushed by MVA & ASID
system.cpu.dtb.stage2_mmu.stage2_tlb.hits            0                       # DTB hits
system.cpu.dtb.stage2_mmu.stage2_tlb.inst_accesses            0                       # ITB inst accesses
system.cpu.dtb.stage2_mmu.stage2_tlb.inst_hits            0                       # ITB inst hits
system.cpu.dtb.stage2_mmu.stage2_tlb.inst_misses            0                       # ITB inst misses
system.cpu.dtb.stage2_mmu.stage2_tlb.misses            0                       # DTB misses
system.cpu.dtb.stage2_mmu.stage2_tlb.perms_faults            0                       # Number of TLB faults due to permissions restrictions
system.cpu.dtb.stage2_mmu.stage2_tlb.prefetch_faults            0                       # Number of TLB faults due to prefetch
system.cpu.dtb.stage2_mmu.stage2_tlb.read_accesses            0                       # DTB read accesses
system.cpu.dtb.stage2_mmu.stage2_tlb.read_hits            0                       # DTB read hits
system.cpu.dtb.stage2_mmu.stage2_tlb.read_misses            0                       # DTB read misses
system.cpu.dtb.stage2_mmu.stage2_tlb.walker.walkRequestOrigin_Requested::Data            0                       # Table walker requests started/completed, data/inst
system.cpu.dtb.stage2_mmu.stage2_tlb.walker.walkRequestOrigin_Requested::Inst            0                       # Table walker requests started/completed, data/inst
system.cpu.dtb.stage2_mmu.stage2_tlb.walker.walkRequestOrigin_Requested::total            0                       # Table walker requests started/completed, data/inst
system.cpu.dtb.stage2_mmu.stage2_tlb.walker.walkRequestOrigin_Completed::Data            0                       # Table walker requests started/completed, data/inst
system.cpu.dtb.stage2_mmu.stage2_tlb.walker.walkRequestOrigin_Completed::Inst            0                       # Table walker requests started/completed, data/inst
system.cpu.dtb.stage2_mmu.stage2_tlb.walker.walkRequestOrigin_Completed::total            0                       # Table walker requests started/completed, data/inst
system.cpu.dtb.stage2_mmu.stage2_tlb.walker.walkRequestOrigin::total            0                       # Table walker requests started/completed, data/inst
system.cpu.dtb.stage2_mmu.stage2_tlb.walker.walks            0                       # Table walker walks requested
system.cpu.dtb.stage2_mmu.stage2_tlb.write_accesses            0                       # DTB write accesses
system.cpu.dtb.stage2_mmu.stage2_tlb.write_hits            0                       # DTB write hits
system.cpu.dtb.stage2_mmu.stage2_tlb.write_misses            0                       # DTB write misses
system.cpu.dtb.walker.walkRequestOrigin_Requested::Data            0                       # Table walker requests started/completed, data/inst
system.cpu.dtb.walker.walkRequestOrigin_Requested::Inst            0                       # Table walker requests started/completed, data/inst
system.cpu.dtb.walker.walkRequestOrigin_Requested::total            0                       # Table walker requests started/completed, data/inst
system.cpu.dtb.walker.walkRequestOrigin_Completed::Data            0                       # Table walker requests started/completed, data/inst
system.cpu.dtb.walker.walkRequestOrigin_Completed::Inst            0                       # Table walker requests started/completed, data/inst
system.cpu.dtb.walker.walkRequestOrigin_Completed::total            0                       # Table walker requests started/completed, data/inst
system.cpu.dtb.walker.walkRequestOrigin::total            0                       # Table walker requests started/completed, data/inst
system.cpu.dtb.walker.walks                         0                       # Table walker walks requested
system.cpu.dtb.write_accesses                       0                       # DTB write accesses
system.cpu.dtb.write_hits                           0                       # DTB write hits
system.cpu.dtb.write_misses                         0                       # DTB write misses
system.cpu.fetch2.amo_instructions                  0                       # Number of memory atomic instructions successfully decoded
system.cpu.fetch2.fp_instructions                   0                       # Number of floating point instructions successfully decoded
system.cpu.fetch2.int_instructions            3752157                       # Number of integer instructions successfully decoded
system.cpu.fetch2.load_instructions            345734                       # Number of memory load instructions successfully decoded
system.cpu.fetch2.store_instructions          1947330                       # Number of memory store instructions successfully decoded
system.cpu.fetch2.vec_instructions                  0                       # Number of SIMD instructions successfully decoded
system.cpu.idleCycles                         8099041                       # Total number of cycles that the object has spent stopped
system.cpu.ipc                               0.307611                       # IPC: instructions per cycle
system.cpu.itb.accesses                             0                       # DTB accesses
system.cpu.itb.align_faults                         0                       # Number of TLB faults due to alignment restrictions
system.cpu.itb.domain_faults                        0                       # Number of TLB faults due to domain restrictions
system.cpu.itb.flush_entries                        0                       # Number of entries that have been flushed from TLB
system.cpu.itb.flush_tlb                            0                       # Number of times complete TLB was flushed
system.cpu.itb.flush_tlb_asid                       0                       # Number of times TLB was flushed by ASID
system.cpu.itb.flush_tlb_mva                        0                       # Number of times TLB was flushed by MVA
system.cpu.itb.flush_tlb_mva_asid                   0                       # Number of times TLB was flushed by MVA & ASID
system.cpu.itb.hits                                 0                       # DTB hits
system.cpu.itb.inst_accesses                        0                       # ITB inst accesses
system.cpu.itb.inst_hits                            0                       # ITB inst hits
system.cpu.itb.inst_misses                          0                       # ITB inst misses
system.cpu.itb.misses                               0                       # DTB misses
system.cpu.itb.perms_faults                         0                       # Number of TLB faults due to permissions restrictions
system.cpu.itb.prefetch_faults                      0                       # Number of TLB faults due to prefetch
system.cpu.itb.read_accesses                        0                       # DTB read accesses
system.cpu.itb.read_hits                            0                       # DTB read hits
system.cpu.itb.read_misses                          0                       # DTB read misses
system.cpu.itb.stage2_mmu.stage2_tlb.accesses            0                       # DTB accesses
system.cpu.itb.stage2_mmu.stage2_tlb.align_faults            0                       # Number of TLB faults due to alignment restrictions
system.cpu.itb.stage2_mmu.stage2_tlb.domain_faults            0                       # Number of TLB faults due to domain restrictions
system.cpu.itb.stage2_mmu.stage2_tlb.flush_entries            0                       # Number of entries that have been flushed from TLB
system.cpu.itb.stage2_mmu.stage2_tlb.flush_tlb            0                       # Number of times complete TLB was flushed
system.cpu.itb.stage2_mmu.stage2_tlb.flush_tlb_asid            0                       # Number of times TLB was flushed by ASID
system.cpu.itb.stage2_mmu.stage2_tlb.flush_tlb_mva            0                       # Number of times TLB was flushed by MVA
system.cpu.itb.stage2_mmu.stage2_tlb.flush_tlb_mva_asid            0                       # Number of times TLB was flushed by MVA & ASID
system.cpu.itb.stage2_mmu.stage2_tlb.hits            0                       # DTB hits
system.cpu.itb.stage2_mmu.stage2_tlb.inst_accesses            0                       # ITB inst accesses
system.cpu.itb.stage2_mmu.stage2_tlb.inst_hits            0                       # ITB inst hits
system.cpu.itb.stage2_mmu.stage2_tlb.inst_misses            0                       # ITB inst misses
system.cpu.itb.stage2_mmu.stage2_tlb.misses            0                       # DTB misses
system.cpu.itb.stage2_mmu.stage2_tlb.perms_faults            0                       # Number of TLB faults due to permissions restrictions
system.cpu.itb.stage2_mmu.stage2_tlb.prefetch_faults            0                       # Number of TLB faults due to prefetch
system.cpu.itb.stage2_mmu.stage2_tlb.read_accesses            0                       # DTB read accesses
system.cpu.itb.stage2_mmu.stage2_tlb.read_hits            0                       # DTB read hits
system.cpu.itb.stage2_mmu.stage2_tlb.read_misses            0                       # DTB read misses
system.cpu.itb.stage2_mmu.stage2_tlb.walker.walkRequestOrigin_Requested::Data            0                       # Table walker requests started/completed, data/inst
system.cpu.itb.stage2_mmu.stage2_tlb.walker.walkRequestOrigin_Requested::Inst            0                       # Table walker requests started/completed, data/inst
system.cpu.itb.stage2_mmu.stage2_tlb.walker.walkRequestOrigin_Requested::total            0                       # Table walker requests started/completed, data/inst
system.cpu.itb.stage2_mmu.stage2_tlb.walker.walkRequestOrigin_Completed::Data            0                       # Table walker requests started/completed, data/inst
system.cpu.itb.stage2_mmu.stage2_tlb.walker.walkRequestOrigin_Completed::Inst            0                       # Table walker requests started/completed, data/inst
system.cpu.itb.stage2_mmu.stage2_tlb.walker.walkRequestOrigin_Completed::total            0                       # Table walker requests started/completed, data/inst
system.cpu.itb.stage2_mmu.stage2_tlb.walker.walkRequestOrigin::total            0                       # Table walker requests started/completed, data/inst
system.cpu.itb.stage2_mmu.stage2_tlb.walker.walks            0                       # Table walker walks requested
system.cpu.itb.stage2_mmu.stage2_tlb.write_accesses            0                       # DTB write accesses
system.cpu.itb.stage2_mmu.stage2_tlb.write_hits            0                       # DTB write hits
system.cpu.itb.stage2_mmu.stage2_tlb.write_misses            0                       # DTB write misses
system.cpu.itb.walker.walkRequestOrigin_Requested::Data            0                       # Table walker requests started/completed, data/inst
system.cpu.itb.walker.walkRequestOrigin_Requested::Inst            0                       # Table walker requests started/completed, data/inst
system.cpu.itb.walker.walkRequestOrigin_Requested::total            0                       # Table walker requests started/completed, data/inst
system.cpu.itb.walker.walkRequestOrigin_Completed::Data            0                       # Table walker requests started/completed, data/inst
system.cpu.itb.walker.walkRequestOrigin_Completed::Inst            0                       # Table walker requests started/completed, data/inst
system.cpu.itb.walker.walkRequestOrigin_Completed::total            0                       # Table walker requests started/completed, data/inst
system.cpu.itb.walker.walkRequestOrigin::total            0                       # Table walker requests started/completed, data/inst
system.cpu.itb.walker.walks                         0                       # Table walker walks requested
system.cpu.itb.write_accesses                       0                       # DTB write accesses
system.cpu.itb.write_hits                           0                       # DTB write hits
system.cpu.itb.write_misses                         0                       # DTB write misses
system.cpu.kern.inst.arm                            0                       # number of arm instructions executed
system.cpu.kern.inst.quiesce                      197                       # number of quiesce instructions executed
system.cpu.numCycles                         22750088                       # number of cpu cycles simulated
system.cpu.numFetchSuspends                       197                       # Number of times Execute suspended instruction fetching
system.cpu.numWorkItemsCompleted                    0                       # number of work items this cpu completed
system.cpu.numWorkItemsStarted                      0                       # number of work items this cpu started
system.cpu.op_class_0::No_OpClass                   0      0.00%      0.00% # Class of committed instruction
system.cpu.op_class_0::IntAlu                 4760831     67.03%     67.03% # Class of committed instruction
system.cpu.op_class_0::IntMult                  13474      0.19%     67.22% # Class of committed instruction
system.cpu.op_class_0::IntDiv                       0      0.00%     67.22% # Class of committed instruction
system.cpu.op_class_0::FloatAdd                     0      0.00%     67.22% # Class of committed instruction
system.cpu.op_class_0::FloatCmp                     0      0.00%     67.22% # Class of committed instruction
system.cpu.op_class_0::FloatCvt                     0      0.00%     67.22% # Class of committed instruction
system.cpu.op_class_0::FloatMult                    0      0.00%     67.22% # Class of committed instruction
system.cpu.op_class_0::FloatMultAcc                 0      0.00%     67.22% # Class of committed instruction
system.cpu.op_class_0::FloatDiv                     0      0.00%     67.22% # Class of committed instruction
system.cpu.op_class_0::FloatMisc                    0      0.00%     67.22% # Class of committed instruction
system.cpu.op_class_0::FloatSqrt                    0      0.00%     67.22% # Class of committed instruction
system.cpu.op_class_0::SimdAdd                      0      0.00%     67.22% # Class of committed instruction
system.cpu.op_class_0::SimdAddAcc                   0      0.00%     67.22% # Class of committed instruction
system.cpu.op_class_0::SimdAlu                      0      0.00%     67.22% # Class of committed instruction
system.cpu.op_class_0::SimdCmp                      0      0.00%     67.22% # Class of committed instruction
system.cpu.op_class_0::SimdCvt                      0      0.00%     67.22% # Class of committed instruction
system.cpu.op_class_0::SimdMisc                     0      0.00%     67.22% # Class of committed instruction
system.cpu.op_class_0::SimdMult                     0      0.00%     67.22% # Class of committed instruction
system.cpu.op_class_0::SimdMultAcc                  0      0.00%     67.22% # Class of committed instruction
system.cpu.op_class_0::SimdShift                    0      0.00%     67.22% # Class of committed instruction
system.cpu.op_class_0::SimdShiftAcc                 0      0.00%     67.22% # Class of committed instruction
system.cpu.op_class_0::SimdDiv                      0      0.00%     67.22% # Class of committed instruction
system.cpu.op_class_0::SimdSqrt                     0      0.00%     67.22% # Class of committed instruction
system.cpu.op_class_0::SimdFloatAdd                 0      0.00%     67.22% # Class of committed instruction
system.cpu.op_class_0::SimdFloatAlu                 0      0.00%     67.22% # Class of committed instruction
system.cpu.op_class_0::SimdFloatCmp                 0      0.00%     67.22% # Class of committed instruction
system.cpu.op_class_0::SimdFloatCvt                 0      0.00%     67.22% # Class of committed instruction
system.cpu.op_class_0::SimdFloatDiv                 0      0.00%     67.22% # Class of committed instruction
system.cpu.op_class_0::SimdFloatMisc                0      0.00%     67.22% # Class of committed instruction
system.cpu.op_class_0::SimdFloatMult                0      0.00%     67.22% # Class of committed instruction
system.cpu.op_class_0::SimdFloatMultAcc             0      0.00%     67.22% # Class of committed instruction
system.cpu.op_class_0::SimdFloatSqrt                0      0.00%     67.22% # Class of committed instruction
system.cpu.op_class_0::SimdReduceAdd                0      0.00%     67.22% # Class of committed instruction
system.cpu.op_class_0::SimdReduceAlu                0      0.00%     67.22% # Class of committed instruction
system.cpu.op_class_0::SimdReduceCmp                0      0.00%     67.22% # Class of committed instruction
system.cpu.op_class_0::SimdFloatReduceAdd            0      0.00%     67.22% # Class of committed instruction
system.cpu.op_class_0::SimdFloatReduceCmp            0      0.00%     67.22% # Class of committed instruction
system.cpu.op_class_0::SimdAes                      0      0.00%     67.22% # Class of committed instruction
system.cpu.op_class_0::SimdAesMix                   0      0.00%     67.22% # Class of committed instruction
system.cpu.op_class_0::SimdSha1Hash                 0      0.00%     67.22% # Class of committed instruction
system.cpu.op_class_0::SimdSha1Hash2                0      0.00%     67.22% # Class of committed instruction
system.cpu.op_class_0::SimdSha256Hash               0      0.00%     67.22% # Class of committed instruction
system.cpu.op_class_0::SimdSha256Hash2              0      0.00%     67.22% # Class of committed instruction
system.cpu.op_class_0::SimdShaSigma2                0      0.00%     67.22% # Class of committed instruction
system.cpu.op_class_0::SimdShaSigma3                0      0.00%     67.22% # Class of committed instruction
system.cpu.op_class_0::SimdPredAlu                  0      0.00%     67.22% # Class of committed instruction
system.cpu.op_class_0::MemRead                 344693      4.85%     72.07% # Class of committed instruction
system.cpu.op_class_0::MemWrite               1983771     27.93%    100.00% # Class of committed instruction
system.cpu.op_class_0::FloatMemRead                 0      0.00%    100.00% # Class of committed instruction
system.cpu.op_class_0::FloatMemWrite                0      0.00%    100.00% # Class of committed instruction
system.cpu.op_class_0::IprAccess                    0      0.00%    100.00% # Class of committed instruction
system.cpu.op_class_0::InstPrefetch                 0      0.00%    100.00% # Class of committed instruction
system.cpu.op_class_0::total                  7102769                       # Class of committed instruction
system.cpu.quiesceCycles                     13632462                       # Total number of cycles that CPU has spent quiesced or waiting for an interrupt
system.cpu.tickCycles                        14651047                       # Number of cycles that the object actually ticked
system.membus.snoop_filter.hit_multi_requests           18                       # Number of requests hitting in the snoop filter with multiple (>1) holders of the requested data.
system.membus.snoop_filter.hit_multi_snoops            0                       # Number of snoops hitting in the snoop filter with multiple (>1) holders of the requested data.
system.membus.snoop_filter.hit_single_requests         2393                       # Number of requests hitting in the snoop filter with a single holder of the requested data.
system.membus.snoop_filter.hit_single_snoops            0                       # Number of snoops hitting in the snoop filter with a single holder of the requested data.
system.membus.snoop_filter.tot_requests       1781862                       # Total number of requests made to the snoop filter.
system.membus.snoop_filter.tot_snoops               0                       # Total number of snoops made to the snoop filter.
system.bridge.pwrStateResidencyTicks::UNDEFINED  36629261250                       # Cumulative time (in ticks) in various power states
system.voltage_domain.voltage                       1                       # Voltage in Volts
system.iocache.pwrStateResidencyTicks::UNDEFINED  36629261250                       # Cumulative time (in ticks) in various power states
system.iocache.blocked_cycles::no_mshrs             0                       # number of cycles access was blocked
system.iocache.blocked_cycles::no_targets            0                       # number of cycles access was blocked
system.iocache.blocked::no_mshrs                    0                       # number of cycles access was blocked
system.iocache.blocked::no_targets                  0                       # number of cycles access was blocked
system.iocache.avg_blocked_cycles::no_mshrs          nan                       # average number of cycles each access was blocked
system.iocache.avg_blocked_cycles::no_targets          nan                       # average number of cycles each access was blocked
system.iocache.replacements                         0                       # number of replacements
system.iocache.tags.pwrStateResidencyTicks::UNDEFINED  36629261250                       # Cumulative time (in ticks) in various power states
system.iocache.tags.tagsinuse                       0                       # Cycle average of tags in use
system.iocache.tags.total_refs                      0                       # Total number of references to valid blocks.
system.iocache.tags.sampled_refs                    0                       # Sample count of references to valid blocks.
system.iocache.tags.avg_refs                      nan                       # Average number of references to valid blocks.
system.iocache.tags.warmup_cycle                    0                       # Cycle when the warmup percentage was hit.
system.iocache.tags.tag_accesses                    0                       # Number of tag accesses
system.iocache.tags.data_accesses                   0                       # Number of data accesses
system.membus.pwrStateResidencyTicks::UNDEFINED  36629261250                       # Cumulative time (in ticks) in various power states
system.membus.trans_dist::ReadReq              641072                       # Transaction distribution
system.membus.trans_dist::ReadResp             643618                       # Transaction distribution
system.membus.trans_dist::WriteReq             264792                       # Transaction distribution
system.membus.trans_dist::WriteResp            264792                       # Transaction distribution
system.membus.trans_dist::WritebackDirty         1346                       # Transaction distribution
system.membus.trans_dist::CleanEvict             1028                       # Transaction distribution
system.membus.trans_dist::ReadExReq                48                       # Transaction distribution
system.membus.trans_dist::ReadExResp               49                       # Transaction distribution
system.membus.trans_dist::ReadCleanReq            305                       # Transaction distribution
system.membus.trans_dist::ReadSharedReq          2241                       # Transaction distribution
system.membus.trans_dist::CleanInvalidReq       888444                       # Transaction distribution
system.membus.trans_dist::InvalidateReq        888444                       # Transaction distribution
system.membus.pkt_count_system.cpu.icache.mem_side::system.realview.bootmem.port          694                       # Packet count per connected master and slave (bytes)
system.membus.pkt_count_system.cpu.icache.mem_side::total          694                       # Packet count per connected master and slave (bytes)
system.membus.pkt_count_system.cpu.dcache.mem_side::system.realview.bootmem.port           91                       # Packet count per connected master and slave (bytes)
system.membus.pkt_count_system.cpu.dcache.mem_side::system.realview.gic.pio         6864                       # Packet count per connected master and slave (bytes)
system.membus.pkt_count_system.cpu.dcache.mem_side::system.mem_ctrls.port      1783666                       # Packet count per connected master and slave (bytes)
system.membus.pkt_count_system.cpu.dcache.mem_side::system.acctest.mem2cls.slave        27976                       # Packet count per connected master and slave (bytes)
system.membus.pkt_count_system.cpu.dcache.mem_side::total      1818597                       # Packet count per connected master and slave (bytes)
system.membus.pkt_count_system.acctest.coherency_bus.master[0]::system.mem_ctrls.port      1776888                       # Packet count per connected master and slave (bytes)
system.membus.pkt_count_system.acctest.coherency_bus.master[0]::total      1776888                       # Packet count per connected master and slave (bytes)
system.membus.pkt_count::total                3596179                       # Packet count per connected master and slave (bytes)
system.membus.pkt_size_system.cpu.icache.mem_side::system.realview.bootmem.port        19520                       # Cumulative packet size per connected master and slave (bytes)
system.membus.pkt_size_system.cpu.icache.mem_side::total        19520                       # Cumulative packet size per connected master and slave (bytes)
system.membus.pkt_size_system.cpu.dcache.mem_side::system.realview.bootmem.port         2240                       # Cumulative packet size per connected master and slave (bytes)
system.membus.pkt_size_system.cpu.dcache.mem_side::system.realview.gic.pio        13728                       # Cumulative packet size per connected master and slave (bytes)
system.membus.pkt_size_system.cpu.dcache.mem_side::system.mem_ctrls.port       230464                       # Cumulative packet size per connected master and slave (bytes)
system.membus.pkt_size_system.cpu.dcache.mem_side::system.acctest.mem2cls.slave        37748                       # Cumulative packet size per connected master and slave (bytes)
system.membus.pkt_size_system.cpu.dcache.mem_side::total       284180                       # Cumulative packet size per connected master and slave (bytes)
system.membus.pkt_size_system.acctest.coherency_bus.master[0]::system.mem_ctrls.port     56858800                       # Cumulative packet size per connected master and slave (bytes)
system.membus.pkt_size_system.acctest.coherency_bus.master[0]::total     56858800                       # Cumulative packet size per connected master and slave (bytes)
system.membus.pkt_size::total                57162500                       # Cumulative packet size per connected master and slave (bytes)
system.membus.snoops                                0                       # Total snoops (count)
system.membus.snoopTraffic                          0                       # Total snoop traffic (bytes)
system.membus.snoop_fanout::samples           2685984                       # Request fanout histogram
system.membus.snoop_fanout::mean             0.000014                       # Request fanout histogram
system.membus.snoop_fanout::stdev            0.003711                       # Request fanout histogram
system.membus.snoop_fanout::underflows              0      0.00%      0.00% # Request fanout histogram
system.membus.snoop_fanout::0                 2685947    100.00%    100.00% # Request fanout histogram
system.membus.snoop_fanout::1                      37      0.00%    100.00% # Request fanout histogram
system.membus.snoop_fanout::2                       0      0.00%    100.00% # Request fanout histogram
system.membus.snoop_fanout::3                       0      0.00%    100.00% # Request fanout histogram
system.membus.snoop_fanout::4                       0      0.00%    100.00% # Request fanout histogram
system.membus.snoop_fanout::overflows               0      0.00%    100.00% # Request fanout histogram
system.membus.snoop_fanout::min_value               0                       # Request fanout histogram
system.membus.snoop_fanout::max_value               1                       # Request fanout histogram
system.membus.snoop_fanout::total             2685984                       # Request fanout histogram
system.membus.reqLayer6.occupancy          4281817373                       # Layer occupancy (ticks)
system.membus.reqLayer6.utilization              18.8                       # Layer utilization (%)
system.membus.reqLayer7.occupancy            35339624                       # Layer occupancy (ticks)
system.membus.reqLayer7.utilization               0.2                       # Layer utilization (%)
system.membus.reqLayer1.occupancy              671640                       # Layer occupancy (ticks)
system.membus.reqLayer1.utilization               0.0                       # Layer utilization (%)
system.membus.reqLayer2.occupancy             6730625                       # Layer occupancy (ticks)
system.membus.reqLayer2.utilization               0.0                       # Layer utilization (%)
system.membus.badaddr_responder.pwrStateResidencyTicks::UNDEFINED  36629261250                       # Cumulative time (in ticks) in various power states
system.membus.respLayer4.occupancy           31808762                       # Layer occupancy (ticks)
system.membus.respLayer4.utilization              0.1                       # Layer utilization (%)
system.membus.respLayer7.occupancy         3783356046                       # Layer occupancy (ticks)
system.membus.respLayer7.utilization             16.6                       # Layer utilization (%)
system.membus.respLayer3.occupancy            1530250                       # Layer occupancy (ticks)
system.membus.respLayer3.utilization              0.0                       # Layer utilization (%)
system.acctest.harris_non_max0_spm.pwrStateResidencyTicks::UNDEFINED  36629261250                       # Cumulative time (in ticks) in various power states
system.acctest.harris_non_max0_spm.bytes_read::.acctest.harris_non_max0.system.acctest.harris_non_max0       262144                       # Number of bytes read from this memory
system.acctest.harris_non_max0_spm.bytes_read::.acctest.harris_non_max0_dma        65536                       # Number of bytes read from this memory
system.acctest.harris_non_max0_spm.bytes_read::total       327680                       # Number of bytes read from this memory
system.acctest.harris_non_max0_spm.bytes_written::.acctest.harris_non_max0.system.acctest.harris_non_max0        65536                       # Number of bytes written to this memory
system.acctest.harris_non_max0_spm.bytes_written::.acctest.harris_non_max0_dma       262144                       # Number of bytes written to this memory
system.acctest.harris_non_max0_spm.bytes_written::total       327680                       # Number of bytes written to this memory
system.acctest.harris_non_max0_spm.num_reads::.acctest.harris_non_max0.system.acctest.harris_non_max0        65536                       # Number of read requests responded to by this memory
system.acctest.harris_non_max0_spm.num_reads::.acctest.harris_non_max0_dma         2048                       # Number of read requests responded to by this memory
system.acctest.harris_non_max0_spm.num_reads::total        67584                       # Number of read requests responded to by this memory
system.acctest.harris_non_max0_spm.num_writes::.acctest.harris_non_max0.system.acctest.harris_non_max0        65536                       # Number of write requests responded to by this memory
system.acctest.harris_non_max0_spm.num_writes::.acctest.harris_non_max0_dma         8192                       # Number of write requests responded to by this memory
system.acctest.harris_non_max0_spm.num_writes::total        73728                       # Number of write requests responded to by this memory
system.acctest.harris_non_max0_spm.bw_read::.acctest.harris_non_max0.system.acctest.harris_non_max0     11528340                       # Total read bandwidth from this memory (bytes/s)
system.acctest.harris_non_max0_spm.bw_read::.acctest.harris_non_max0_dma      2882085                       # Total read bandwidth from this memory (bytes/s)
system.acctest.harris_non_max0_spm.bw_read::total     14410425                       # Total read bandwidth from this memory (bytes/s)
system.acctest.harris_non_max0_spm.bw_write::.acctest.harris_non_max0.system.acctest.harris_non_max0      2882085                       # Write bandwidth from this memory (bytes/s)
system.acctest.harris_non_max0_spm.bw_write::.acctest.harris_non_max0_dma     11528340                       # Write bandwidth from this memory (bytes/s)
system.acctest.harris_non_max0_spm.bw_write::total     14410425                       # Write bandwidth from this memory (bytes/s)
system.acctest.harris_non_max0_spm.bw_total::.acctest.harris_non_max0.system.acctest.harris_non_max0     14410425                       # Total bandwidth to/from this memory (bytes/s)
system.acctest.harris_non_max0_spm.bw_total::.acctest.harris_non_max0_dma     14410425                       # Total bandwidth to/from this memory (bytes/s)
system.acctest.harris_non_max0_spm.bw_total::total     28820850                       # Total bandwidth to/from this memory (bytes/s)
system.acctest.elem_matrix2_spm.pwrStateResidencyTicks::UNDEFINED  36629261250                       # Cumulative time (in ticks) in various power states
system.acctest.elem_matrix2_spm.bytes_read::.acctest.convolution1_dma        65536                       # Number of bytes read from this memory
system.acctest.elem_matrix2_spm.bytes_read::.acctest.elem_matrix0_dma       524288                       # Number of bytes read from this memory
system.acctest.elem_matrix2_spm.bytes_read::.acctest.elem_matrix1_dma       720896                       # Number of bytes read from this memory
system.acctest.elem_matrix2_spm.bytes_read::.acctest.elem_matrix2.system.acctest.elem_matrix2     16646144                       # Number of bytes read from this memory
system.acctest.elem_matrix2_spm.bytes_read::.acctest.elem_matrix2_dma      3604480                       # Number of bytes read from this memory
system.acctest.elem_matrix2_spm.bytes_read::.acctest.elem_matrix3_dma       327680                       # Number of bytes read from this memory
system.acctest.elem_matrix2_spm.bytes_read::total     21889024                       # Number of bytes read from this memory
system.acctest.elem_matrix2_spm.bytes_written::.acctest.elem_matrix2.system.acctest.elem_matrix2      9830400                       # Number of bytes written to this memory
system.acctest.elem_matrix2_spm.bytes_written::.acctest.elem_matrix2_dma     11010048                       # Number of bytes written to this memory
system.acctest.elem_matrix2_spm.bytes_written::total     20840448                       # Number of bytes written to this memory
system.acctest.elem_matrix2_spm.num_reads::.acctest.convolution1_dma         2048                       # Number of read requests responded to by this memory
system.acctest.elem_matrix2_spm.num_reads::.acctest.elem_matrix0_dma        16384                       # Number of read requests responded to by this memory
system.acctest.elem_matrix2_spm.num_reads::.acctest.elem_matrix1_dma        22528                       # Number of read requests responded to by this memory
system.acctest.elem_matrix2_spm.num_reads::.acctest.elem_matrix2.system.acctest.elem_matrix2      4161536                       # Number of read requests responded to by this memory
system.acctest.elem_matrix2_spm.num_reads::.acctest.elem_matrix2_dma       112640                       # Number of read requests responded to by this memory
system.acctest.elem_matrix2_spm.num_reads::.acctest.elem_matrix3_dma        10240                       # Number of read requests responded to by this memory
system.acctest.elem_matrix2_spm.num_reads::total      4325376                       # Number of read requests responded to by this memory
system.acctest.elem_matrix2_spm.num_writes::.acctest.elem_matrix2.system.acctest.elem_matrix2      2457600                       # Number of write requests responded to by this memory
system.acctest.elem_matrix2_spm.num_writes::.acctest.elem_matrix2_dma       344064                       # Number of write requests responded to by this memory
system.acctest.elem_matrix2_spm.num_writes::total      2801664                       # Number of write requests responded to by this memory
system.acctest.elem_matrix2_spm.bw_read::.acctest.convolution1_dma      2882085                       # Total read bandwidth from this memory (bytes/s)
system.acctest.elem_matrix2_spm.bw_read::.acctest.elem_matrix0_dma     23056680                       # Total read bandwidth from this memory (bytes/s)
system.acctest.elem_matrix2_spm.bw_read::.acctest.elem_matrix1_dma     31702935                       # Total read bandwidth from this memory (bytes/s)
system.acctest.elem_matrix2_spm.bw_read::.acctest.elem_matrix2.system.acctest.elem_matrix2    732049579                       # Total read bandwidth from this memory (bytes/s)
system.acctest.elem_matrix2_spm.bw_read::.acctest.elem_matrix2_dma    158514673                       # Total read bandwidth from this memory (bytes/s)
system.acctest.elem_matrix2_spm.bw_read::.acctest.elem_matrix3_dma     14410425                       # Total read bandwidth from this memory (bytes/s)
system.acctest.elem_matrix2_spm.bw_read::total    962616375                       # Total read bandwidth from this memory (bytes/s)
system.acctest.elem_matrix2_spm.bw_write::.acctest.elem_matrix2.system.acctest.elem_matrix2    432312743                       # Write bandwidth from this memory (bytes/s)
system.acctest.elem_matrix2_spm.bw_write::.acctest.elem_matrix2_dma    484190273                       # Write bandwidth from this memory (bytes/s)
system.acctest.elem_matrix2_spm.bw_write::total    916503016                       # Write bandwidth from this memory (bytes/s)
system.acctest.elem_matrix2_spm.bw_total::.acctest.convolution1_dma      2882085                       # Total bandwidth to/from this memory (bytes/s)
system.acctest.elem_matrix2_spm.bw_total::.acctest.elem_matrix0_dma     23056680                       # Total bandwidth to/from this memory (bytes/s)
system.acctest.elem_matrix2_spm.bw_total::.acctest.elem_matrix1_dma     31702935                       # Total bandwidth to/from this memory (bytes/s)
system.acctest.elem_matrix2_spm.bw_total::.acctest.elem_matrix2.system.acctest.elem_matrix2   1164362322                       # Total bandwidth to/from this memory (bytes/s)
system.acctest.elem_matrix2_spm.bw_total::.acctest.elem_matrix2_dma    642704945                       # Total bandwidth to/from this memory (bytes/s)
system.acctest.elem_matrix2_spm.bw_total::.acctest.elem_matrix3_dma     14410425                       # Total bandwidth to/from this memory (bytes/s)
system.acctest.elem_matrix2_spm.bw_total::total   1879119391                       # Total bandwidth to/from this memory (bytes/s)
system.acctest.elem_matrix3_spm.pwrStateResidencyTicks::UNDEFINED  36629261250                       # Cumulative time (in ticks) in various power states
system.acctest.elem_matrix3_spm.bytes_read::.acctest.convolution0_dma        65536                       # Number of bytes read from this memory
system.acctest.elem_matrix3_spm.bytes_read::.acctest.elem_matrix0_dma       327680                       # Number of bytes read from this memory
system.acctest.elem_matrix3_spm.bytes_read::.acctest.elem_matrix1_dma       196608                       # Number of bytes read from this memory
system.acctest.elem_matrix3_spm.bytes_read::.acctest.elem_matrix2_dma       262144                       # Number of bytes read from this memory
system.acctest.elem_matrix3_spm.bytes_read::.acctest.elem_matrix3.system.acctest.elem_matrix3     17760256                       # Number of bytes read from this memory
system.acctest.elem_matrix3_spm.bytes_read::.acctest.elem_matrix3_dma      3145728                       # Number of bytes read from this memory
system.acctest.elem_matrix3_spm.bytes_read::total     21757952                       # Number of bytes read from this memory
system.acctest.elem_matrix3_spm.bytes_written::.acctest.elem_matrix3.system.acctest.elem_matrix3     10420224                       # Number of bytes written to this memory
system.acctest.elem_matrix3_spm.bytes_written::.acctest.elem_matrix3_dma     10354688                       # Number of bytes written to this memory
system.acctest.elem_matrix3_spm.bytes_written::total     20774912                       # Number of bytes written to this memory
system.acctest.elem_matrix3_spm.num_reads::.acctest.convolution0_dma         2048                       # Number of read requests responded to by this memory
system.acctest.elem_matrix3_spm.num_reads::.acctest.elem_matrix0_dma        10240                       # Number of read requests responded to by this memory
system.acctest.elem_matrix3_spm.num_reads::.acctest.elem_matrix1_dma         6144                       # Number of read requests responded to by this memory
system.acctest.elem_matrix3_spm.num_reads::.acctest.elem_matrix2_dma         8192                       # Number of read requests responded to by this memory
system.acctest.elem_matrix3_spm.num_reads::.acctest.elem_matrix3.system.acctest.elem_matrix3      4440064                       # Number of read requests responded to by this memory
system.acctest.elem_matrix3_spm.num_reads::.acctest.elem_matrix3_dma        98304                       # Number of read requests responded to by this memory
system.acctest.elem_matrix3_spm.num_reads::total      4564992                       # Number of read requests responded to by this memory
system.acctest.elem_matrix3_spm.num_writes::.acctest.elem_matrix3.system.acctest.elem_matrix3      2605056                       # Number of write requests responded to by this memory
system.acctest.elem_matrix3_spm.num_writes::.acctest.elem_matrix3_dma       323584                       # Number of write requests responded to by this memory
system.acctest.elem_matrix3_spm.num_writes::total      2928640                       # Number of write requests responded to by this memory
system.acctest.elem_matrix3_spm.bw_read::.acctest.convolution0_dma      2882085                       # Total read bandwidth from this memory (bytes/s)
system.acctest.elem_matrix3_spm.bw_read::.acctest.elem_matrix0_dma     14410425                       # Total read bandwidth from this memory (bytes/s)
system.acctest.elem_matrix3_spm.bw_read::.acctest.elem_matrix1_dma      8646255                       # Total read bandwidth from this memory (bytes/s)
system.acctest.elem_matrix3_spm.bw_read::.acctest.elem_matrix2_dma     11528340                       # Total read bandwidth from this memory (bytes/s)
system.acctest.elem_matrix3_spm.bw_read::.acctest.elem_matrix3.system.acctest.elem_matrix3    781045023                       # Total read bandwidth from this memory (bytes/s)
system.acctest.elem_matrix3_spm.bw_read::.acctest.elem_matrix3_dma    138340078                       # Total read bandwidth from this memory (bytes/s)
system.acctest.elem_matrix3_spm.bw_read::total    956852205                       # Total read bandwidth from this memory (bytes/s)
system.acctest.elem_matrix3_spm.bw_write::.acctest.elem_matrix3.system.acctest.elem_matrix3    458251508                       # Write bandwidth from this memory (bytes/s)
system.acctest.elem_matrix3_spm.bw_write::.acctest.elem_matrix3_dma    455369423                       # Write bandwidth from this memory (bytes/s)
system.acctest.elem_matrix3_spm.bw_write::total    913620931                       # Write bandwidth from this memory (bytes/s)
system.acctest.elem_matrix3_spm.bw_total::.acctest.convolution0_dma      2882085                       # Total bandwidth to/from this memory (bytes/s)
system.acctest.elem_matrix3_spm.bw_total::.acctest.elem_matrix0_dma     14410425                       # Total bandwidth to/from this memory (bytes/s)
system.acctest.elem_matrix3_spm.bw_total::.acctest.elem_matrix1_dma      8646255                       # Total bandwidth to/from this memory (bytes/s)
system.acctest.elem_matrix3_spm.bw_total::.acctest.elem_matrix2_dma     11528340                       # Total bandwidth to/from this memory (bytes/s)
system.acctest.elem_matrix3_spm.bw_total::.acctest.elem_matrix3.system.acctest.elem_matrix3   1239296531                       # Total bandwidth to/from this memory (bytes/s)
system.acctest.elem_matrix3_spm.bw_total::.acctest.elem_matrix3_dma    593709501                       # Total bandwidth to/from this memory (bytes/s)
system.acctest.elem_matrix3_spm.bw_total::total   1870473136                       # Total bandwidth to/from this memory (bytes/s)
system.acctest.local_bus.pwrStateResidencyTicks::UNDEFINED  36629261250                       # Cumulative time (in ticks) in various power states
system.acctest.local_bus.trans_dist::ReadReq       706560                       # Transaction distribution
system.acctest.local_bus.trans_dist::ReadResp       706560                       # Transaction distribution
system.acctest.local_bus.trans_dist::WriteReq      1501072                       # Transaction distribution
system.acctest.local_bus.trans_dist::WriteResp      1501072                       # Transaction distribution
system.acctest.local_bus.pkt_count_system.acctest.mem2cls.master::system.acctest.canny_non_max0.pio           48                       # Packet count per connected master and slave (bytes)
system.acctest.local_bus.pkt_count_system.acctest.mem2cls.master::system.acctest.canny_non_max0_dma.pio          112                       # Packet count per connected master and slave (bytes)
system.acctest.local_bus.pkt_count_system.acctest.mem2cls.master::system.acctest.convolution0.pio          320                       # Packet count per connected master and slave (bytes)
system.acctest.local_bus.pkt_count_system.acctest.mem2cls.master::system.acctest.convolution0_dma.pio          588                       # Packet count per connected master and slave (bytes)
system.acctest.local_bus.pkt_count_system.acctest.mem2cls.master::system.acctest.convolution1.pio          320                       # Packet count per connected master and slave (bytes)
system.acctest.local_bus.pkt_count_system.acctest.mem2cls.master::system.acctest.convolution1_dma.pio          588                       # Packet count per connected master and slave (bytes)
system.acctest.local_bus.pkt_count_system.acctest.mem2cls.master::system.acctest.edge_tracking0.pio           64                       # Packet count per connected master and slave (bytes)
system.acctest.local_bus.pkt_count_system.acctest.mem2cls.master::system.acctest.edge_tracking0_dma.pio          112                       # Packet count per connected master and slave (bytes)
system.acctest.local_bus.pkt_count_system.acctest.mem2cls.master::system.acctest.elem_matrix0.pio         3400                       # Packet count per connected master and slave (bytes)
system.acctest.local_bus.pkt_count_system.acctest.mem2cls.master::system.acctest.elem_matrix0_dma.pio         3332                       # Packet count per connected master and slave (bytes)
system.acctest.local_bus.pkt_count_system.acctest.mem2cls.master::system.acctest.elem_matrix1.pio         3140                       # Packet count per connected master and slave (bytes)
system.acctest.local_bus.pkt_count_system.acctest.mem2cls.master::system.acctest.elem_matrix1_dma.pio         3080                       # Packet count per connected master and slave (bytes)
system.acctest.local_bus.pkt_count_system.acctest.mem2cls.master::system.acctest.elem_matrix2.pio         3000                       # Packet count per connected master and slave (bytes)
system.acctest.local_bus.pkt_count_system.acctest.mem2cls.master::system.acctest.elem_matrix2_dma.pio         3122                       # Packet count per connected master and slave (bytes)
system.acctest.local_bus.pkt_count_system.acctest.mem2cls.master::system.acctest.elem_matrix3.pio         3180                       # Packet count per connected master and slave (bytes)
system.acctest.local_bus.pkt_count_system.acctest.mem2cls.master::system.acctest.elem_matrix3_dma.pio         2884                       # Packet count per connected master and slave (bytes)
system.acctest.local_bus.pkt_count_system.acctest.mem2cls.master::system.acctest.grayscale0.pio           80                       # Packet count per connected master and slave (bytes)
system.acctest.local_bus.pkt_count_system.acctest.mem2cls.master::system.acctest.grayscale0_dma.pio          196                       # Packet count per connected master and slave (bytes)
system.acctest.local_bus.pkt_count_system.acctest.mem2cls.master::system.acctest.harris_non_max0.pio           48                       # Packet count per connected master and slave (bytes)
system.acctest.local_bus.pkt_count_system.acctest.mem2cls.master::system.acctest.harris_non_max0_dma.pio          112                       # Packet count per connected master and slave (bytes)
system.acctest.local_bus.pkt_count_system.acctest.mem2cls.master::system.acctest.isp0.pio           96                       # Packet count per connected master and slave (bytes)
system.acctest.local_bus.pkt_count_system.acctest.mem2cls.master::system.acctest.isp0_dma.pio          154                       # Packet count per connected master and slave (bytes)
system.acctest.local_bus.pkt_count_system.acctest.mem2cls.master::total        27976                       # Packet count per connected master and slave (bytes)
system.acctest.local_bus.pkt_count_system.acctest.canny_non_max0_dma.dma::system.acctest.canny_non_max0_spm.port        32768                       # Packet count per connected master and slave (bytes)
system.acctest.local_bus.pkt_count_system.acctest.canny_non_max0_dma.dma::system.acctest.elem_matrix0_spm.port         4096                       # Packet count per connected master and slave (bytes)
system.acctest.local_bus.pkt_count_system.acctest.canny_non_max0_dma.dma::total        36864                       # Packet count per connected master and slave (bytes)
system.acctest.local_bus.pkt_count_system.acctest.convolution0_dma.dma::system.acctest.convolution0_spm.port       106592                       # Packet count per connected master and slave (bytes)
system.acctest.local_bus.pkt_count_system.acctest.convolution0_dma.dma::system.acctest.elem_matrix3_spm.port         4096                       # Packet count per connected master and slave (bytes)
system.acctest.local_bus.pkt_count_system.acctest.convolution0_dma.dma::system.acctest.grayscale0_spm.port         4096                       # Packet count per connected master and slave (bytes)
system.acctest.local_bus.pkt_count_system.acctest.convolution0_dma.dma::total       114784                       # Packet count per connected master and slave (bytes)
system.acctest.local_bus.pkt_count_system.acctest.convolution1_dma.dma::system.acctest.convolution1_spm.port       106592                       # Packet count per connected master and slave (bytes)
system.acctest.local_bus.pkt_count_system.acctest.convolution1_dma.dma::system.acctest.elem_matrix2_spm.port         4096                       # Packet count per connected master and slave (bytes)
system.acctest.local_bus.pkt_count_system.acctest.convolution1_dma.dma::system.acctest.grayscale0_spm.port         4096                       # Packet count per connected master and slave (bytes)
system.acctest.local_bus.pkt_count_system.acctest.convolution1_dma.dma::total       114784                       # Packet count per connected master and slave (bytes)
system.acctest.local_bus.pkt_count_system.acctest.edge_tracking0_dma.dma::system.acctest.canny_non_max0_spm.port        16384                       # Packet count per connected master and slave (bytes)
system.acctest.local_bus.pkt_count_system.acctest.edge_tracking0_dma.dma::system.acctest.edge_tracking0_spm.port        20480                       # Packet count per connected master and slave (bytes)
system.acctest.local_bus.pkt_count_system.acctest.edge_tracking0_dma.dma::total        36864                       # Packet count per connected master and slave (bytes)
system.acctest.local_bus.pkt_count_system.acctest.elem_matrix0_dma.dma::system.acctest.convolution0_spm.port        16384                       # Packet count per connected master and slave (bytes)
system.acctest.local_bus.pkt_count_system.acctest.elem_matrix0_dma.dma::system.acctest.convolution1_spm.port         4096                       # Packet count per connected master and slave (bytes)
system.acctest.local_bus.pkt_count_system.acctest.elem_matrix0_dma.dma::system.acctest.elem_matrix0_spm.port       958472                       # Packet count per connected master and slave (bytes)
system.acctest.local_bus.pkt_count_system.acctest.elem_matrix0_dma.dma::system.acctest.elem_matrix1_spm.port        32768                       # Packet count per connected master and slave (bytes)
system.acctest.local_bus.pkt_count_system.acctest.elem_matrix0_dma.dma::system.acctest.elem_matrix2_spm.port        32768                       # Packet count per connected master and slave (bytes)
system.acctest.local_bus.pkt_count_system.acctest.elem_matrix0_dma.dma::system.acctest.elem_matrix3_spm.port        20480                       # Packet count per connected master and slave (bytes)
system.acctest.local_bus.pkt_count_system.acctest.elem_matrix0_dma.dma::total      1064968                       # Packet count per connected master and slave (bytes)
system.acctest.local_bus.pkt_count_system.acctest.elem_matrix1_dma.dma::system.acctest.convolution0_spm.port         8192                       # Packet count per connected master and slave (bytes)
system.acctest.local_bus.pkt_count_system.acctest.elem_matrix1_dma.dma::system.acctest.convolution1_spm.port         8192                       # Packet count per connected master and slave (bytes)
system.acctest.local_bus.pkt_count_system.acctest.elem_matrix1_dma.dma::system.acctest.elem_matrix0_spm.port        20480                       # Packet count per connected master and slave (bytes)
system.acctest.local_bus.pkt_count_system.acctest.elem_matrix1_dma.dma::system.acctest.elem_matrix1_spm.port       901120                       # Packet count per connected master and slave (bytes)
system.acctest.local_bus.pkt_count_system.acctest.elem_matrix1_dma.dma::system.acctest.elem_matrix2_spm.port        45056                       # Packet count per connected master and slave (bytes)
system.acctest.local_bus.pkt_count_system.acctest.elem_matrix1_dma.dma::system.acctest.elem_matrix3_spm.port        12288                       # Packet count per connected master and slave (bytes)
system.acctest.local_bus.pkt_count_system.acctest.elem_matrix1_dma.dma::total       995328                       # Packet count per connected master and slave (bytes)
system.acctest.local_bus.pkt_count_system.acctest.elem_matrix2_dma.dma::system.acctest.convolution1_spm.port         8192                       # Packet count per connected master and slave (bytes)
system.acctest.local_bus.pkt_count_system.acctest.elem_matrix2_dma.dma::system.acctest.elem_matrix0_spm.port        32768                       # Packet count per connected master and slave (bytes)
system.acctest.local_bus.pkt_count_system.acctest.elem_matrix2_dma.dma::system.acctest.elem_matrix1_spm.port        40960                       # Packet count per connected master and slave (bytes)
system.acctest.local_bus.pkt_count_system.acctest.elem_matrix2_dma.dma::system.acctest.elem_matrix2_spm.port       913408                       # Packet count per connected master and slave (bytes)
system.acctest.local_bus.pkt_count_system.acctest.elem_matrix2_dma.dma::system.acctest.elem_matrix3_spm.port        16384                       # Packet count per connected master and slave (bytes)
system.acctest.local_bus.pkt_count_system.acctest.elem_matrix2_dma.dma::total      1011712                       # Packet count per connected master and slave (bytes)
system.acctest.local_bus.pkt_count_system.acctest.elem_matrix3_dma.dma::system.acctest.convolution1_spm.port         4096                       # Packet count per connected master and slave (bytes)
system.acctest.local_bus.pkt_count_system.acctest.elem_matrix3_dma.dma::system.acctest.elem_matrix0_spm.port        20480                       # Packet count per connected master and slave (bytes)
system.acctest.local_bus.pkt_count_system.acctest.elem_matrix3_dma.dma::system.acctest.elem_matrix1_spm.port        12288                       # Packet count per connected master and slave (bytes)
system.acctest.local_bus.pkt_count_system.acctest.elem_matrix3_dma.dma::system.acctest.elem_matrix2_spm.port        20480                       # Packet count per connected master and slave (bytes)
system.acctest.local_bus.pkt_count_system.acctest.elem_matrix3_dma.dma::system.acctest.elem_matrix3_spm.port       843776                       # Packet count per connected master and slave (bytes)
system.acctest.local_bus.pkt_count_system.acctest.elem_matrix3_dma.dma::total       901120                       # Packet count per connected master and slave (bytes)
system.acctest.local_bus.pkt_count_system.acctest.grayscale0_dma.dma::system.acctest.grayscale0_spm.port        49152                       # Packet count per connected master and slave (bytes)
system.acctest.local_bus.pkt_count_system.acctest.grayscale0_dma.dma::system.acctest.isp0_spm.port        15360                       # Packet count per connected master and slave (bytes)
system.acctest.local_bus.pkt_count_system.acctest.grayscale0_dma.dma::total        64512                       # Packet count per connected master and slave (bytes)
system.acctest.local_bus.pkt_count_system.acctest.harris_non_max0_dma.dma::system.acctest.elem_matrix0_spm.port         8192                       # Packet count per connected master and slave (bytes)
system.acctest.local_bus.pkt_count_system.acctest.harris_non_max0_dma.dma::system.acctest.harris_non_max0_spm.port        20480                       # Packet count per connected master and slave (bytes)
system.acctest.local_bus.pkt_count_system.acctest.harris_non_max0_dma.dma::total        28672                       # Packet count per connected master and slave (bytes)
system.acctest.local_bus.pkt_count_system.acctest.isp0_dma.dma::system.acctest.isp0_spm.port        17680                       # Packet count per connected master and slave (bytes)
system.acctest.local_bus.pkt_count_system.acctest.isp0_dma.dma::total        17680                       # Packet count per connected master and slave (bytes)
system.acctest.local_bus.pkt_count::total      4415264                       # Packet count per connected master and slave (bytes)
system.acctest.local_bus.pkt_size_system.acctest.mem2cls.master::system.acctest.canny_non_max0.pio           60                       # Cumulative packet size per connected master and slave (bytes)
system.acctest.local_bus.pkt_size_system.acctest.mem2cls.master::system.acctest.canny_non_max0_dma.pio          176                       # Cumulative packet size per connected master and slave (bytes)
system.acctest.local_bus.pkt_size_system.acctest.mem2cls.master::system.acctest.convolution0.pio          448                       # Cumulative packet size per connected master and slave (bytes)
system.acctest.local_bus.pkt_size_system.acctest.mem2cls.master::system.acctest.convolution0_dma.pio          924                       # Cumulative packet size per connected master and slave (bytes)
system.acctest.local_bus.pkt_size_system.acctest.mem2cls.master::system.acctest.convolution1.pio          448                       # Cumulative packet size per connected master and slave (bytes)
system.acctest.local_bus.pkt_size_system.acctest.mem2cls.master::system.acctest.convolution1_dma.pio          924                       # Cumulative packet size per connected master and slave (bytes)
system.acctest.local_bus.pkt_size_system.acctest.mem2cls.master::system.acctest.edge_tracking0.pio           92                       # Cumulative packet size per connected master and slave (bytes)
system.acctest.local_bus.pkt_size_system.acctest.mem2cls.master::system.acctest.edge_tracking0_dma.pio          176                       # Cumulative packet size per connected master and slave (bytes)
system.acctest.local_bus.pkt_size_system.acctest.mem2cls.master::system.acctest.elem_matrix0.pio         3740                       # Cumulative packet size per connected master and slave (bytes)
system.acctest.local_bus.pkt_size_system.acctest.mem2cls.master::system.acctest.elem_matrix0_dma.pio         5236                       # Cumulative packet size per connected master and slave (bytes)
system.acctest.local_bus.pkt_size_system.acctest.mem2cls.master::system.acctest.elem_matrix1.pio         3454                       # Cumulative packet size per connected master and slave (bytes)
system.acctest.local_bus.pkt_size_system.acctest.mem2cls.master::system.acctest.elem_matrix1_dma.pio         4840                       # Cumulative packet size per connected master and slave (bytes)
system.acctest.local_bus.pkt_size_system.acctest.mem2cls.master::system.acctest.elem_matrix2.pio         3300                       # Cumulative packet size per connected master and slave (bytes)
system.acctest.local_bus.pkt_size_system.acctest.mem2cls.master::system.acctest.elem_matrix2_dma.pio         4906                       # Cumulative packet size per connected master and slave (bytes)
system.acctest.local_bus.pkt_size_system.acctest.mem2cls.master::system.acctest.elem_matrix3.pio         3498                       # Cumulative packet size per connected master and slave (bytes)
system.acctest.local_bus.pkt_size_system.acctest.mem2cls.master::system.acctest.elem_matrix3_dma.pio         4532                       # Cumulative packet size per connected master and slave (bytes)
system.acctest.local_bus.pkt_size_system.acctest.mem2cls.master::system.acctest.grayscale0.pio           88                       # Cumulative packet size per connected master and slave (bytes)
system.acctest.local_bus.pkt_size_system.acctest.mem2cls.master::system.acctest.grayscale0_dma.pio          308                       # Cumulative packet size per connected master and slave (bytes)
system.acctest.local_bus.pkt_size_system.acctest.mem2cls.master::system.acctest.harris_non_max0.pio           60                       # Cumulative packet size per connected master and slave (bytes)
system.acctest.local_bus.pkt_size_system.acctest.mem2cls.master::system.acctest.harris_non_max0_dma.pio          176                       # Cumulative packet size per connected master and slave (bytes)
system.acctest.local_bus.pkt_size_system.acctest.mem2cls.master::system.acctest.isp0.pio          120                       # Cumulative packet size per connected master and slave (bytes)
system.acctest.local_bus.pkt_size_system.acctest.mem2cls.master::system.acctest.isp0_dma.pio          242                       # Cumulative packet size per connected master and slave (bytes)
system.acctest.local_bus.pkt_size_system.acctest.mem2cls.master::total        37748                       # Cumulative packet size per connected master and slave (bytes)
system.acctest.local_bus.pkt_size_system.acctest.canny_non_max0_dma.dma::system.acctest.canny_non_max0_spm.port       524288                       # Cumulative packet size per connected master and slave (bytes)
system.acctest.local_bus.pkt_size_system.acctest.canny_non_max0_dma.dma::system.acctest.elem_matrix0_spm.port        65536                       # Cumulative packet size per connected master and slave (bytes)
system.acctest.local_bus.pkt_size_system.acctest.canny_non_max0_dma.dma::total       589824                       # Cumulative packet size per connected master and slave (bytes)
system.acctest.local_bus.pkt_size_system.acctest.convolution0_dma.dma::system.acctest.convolution0_spm.port      1705024                       # Cumulative packet size per connected master and slave (bytes)
system.acctest.local_bus.pkt_size_system.acctest.convolution0_dma.dma::system.acctest.elem_matrix3_spm.port        65536                       # Cumulative packet size per connected master and slave (bytes)
system.acctest.local_bus.pkt_size_system.acctest.convolution0_dma.dma::system.acctest.grayscale0_spm.port        65536                       # Cumulative packet size per connected master and slave (bytes)
system.acctest.local_bus.pkt_size_system.acctest.convolution0_dma.dma::total      1836096                       # Cumulative packet size per connected master and slave (bytes)
system.acctest.local_bus.pkt_size_system.acctest.convolution1_dma.dma::system.acctest.convolution1_spm.port      1705024                       # Cumulative packet size per connected master and slave (bytes)
system.acctest.local_bus.pkt_size_system.acctest.convolution1_dma.dma::system.acctest.elem_matrix2_spm.port        65536                       # Cumulative packet size per connected master and slave (bytes)
system.acctest.local_bus.pkt_size_system.acctest.convolution1_dma.dma::system.acctest.grayscale0_spm.port        65536                       # Cumulative packet size per connected master and slave (bytes)
system.acctest.local_bus.pkt_size_system.acctest.convolution1_dma.dma::total      1836096                       # Cumulative packet size per connected master and slave (bytes)
system.acctest.local_bus.pkt_size_system.acctest.edge_tracking0_dma.dma::system.acctest.canny_non_max0_spm.port       262144                       # Cumulative packet size per connected master and slave (bytes)
system.acctest.local_bus.pkt_size_system.acctest.edge_tracking0_dma.dma::system.acctest.edge_tracking0_spm.port       327680                       # Cumulative packet size per connected master and slave (bytes)
system.acctest.local_bus.pkt_size_system.acctest.edge_tracking0_dma.dma::total       589824                       # Cumulative packet size per connected master and slave (bytes)
system.acctest.local_bus.pkt_size_system.acctest.elem_matrix0_dma.dma::system.acctest.convolution0_spm.port       262144                       # Cumulative packet size per connected master and slave (bytes)
system.acctest.local_bus.pkt_size_system.acctest.elem_matrix0_dma.dma::system.acctest.convolution1_spm.port        65536                       # Cumulative packet size per connected master and slave (bytes)
system.acctest.local_bus.pkt_size_system.acctest.elem_matrix0_dma.dma::system.acctest.elem_matrix0_spm.port     15335440                       # Cumulative packet size per connected master and slave (bytes)
system.acctest.local_bus.pkt_size_system.acctest.elem_matrix0_dma.dma::system.acctest.elem_matrix1_spm.port       524288                       # Cumulative packet size per connected master and slave (bytes)
system.acctest.local_bus.pkt_size_system.acctest.elem_matrix0_dma.dma::system.acctest.elem_matrix2_spm.port       524288                       # Cumulative packet size per connected master and slave (bytes)
system.acctest.local_bus.pkt_size_system.acctest.elem_matrix0_dma.dma::system.acctest.elem_matrix3_spm.port       327680                       # Cumulative packet size per connected master and slave (bytes)
system.acctest.local_bus.pkt_size_system.acctest.elem_matrix0_dma.dma::total     17039376                       # Cumulative packet size per connected master and slave (bytes)
system.acctest.local_bus.pkt_size_system.acctest.elem_matrix1_dma.dma::system.acctest.convolution0_spm.port       131072                       # Cumulative packet size per connected master and slave (bytes)
system.acctest.local_bus.pkt_size_system.acctest.elem_matrix1_dma.dma::system.acctest.convolution1_spm.port       131072                       # Cumulative packet size per connected master and slave (bytes)
system.acctest.local_bus.pkt_size_system.acctest.elem_matrix1_dma.dma::system.acctest.elem_matrix0_spm.port       327680                       # Cumulative packet size per connected master and slave (bytes)
system.acctest.local_bus.pkt_size_system.acctest.elem_matrix1_dma.dma::system.acctest.elem_matrix1_spm.port     14417920                       # Cumulative packet size per connected master and slave (bytes)
system.acctest.local_bus.pkt_size_system.acctest.elem_matrix1_dma.dma::system.acctest.elem_matrix2_spm.port       720896                       # Cumulative packet size per connected master and slave (bytes)
system.acctest.local_bus.pkt_size_system.acctest.elem_matrix1_dma.dma::system.acctest.elem_matrix3_spm.port       196608                       # Cumulative packet size per connected master and slave (bytes)
system.acctest.local_bus.pkt_size_system.acctest.elem_matrix1_dma.dma::total     15925248                       # Cumulative packet size per connected master and slave (bytes)
system.acctest.local_bus.pkt_size_system.acctest.elem_matrix2_dma.dma::system.acctest.convolution1_spm.port       131072                       # Cumulative packet size per connected master and slave (bytes)
system.acctest.local_bus.pkt_size_system.acctest.elem_matrix2_dma.dma::system.acctest.elem_matrix0_spm.port       524288                       # Cumulative packet size per connected master and slave (bytes)
system.acctest.local_bus.pkt_size_system.acctest.elem_matrix2_dma.dma::system.acctest.elem_matrix1_spm.port       655360                       # Cumulative packet size per connected master and slave (bytes)
system.acctest.local_bus.pkt_size_system.acctest.elem_matrix2_dma.dma::system.acctest.elem_matrix2_spm.port     14614528                       # Cumulative packet size per connected master and slave (bytes)
system.acctest.local_bus.pkt_size_system.acctest.elem_matrix2_dma.dma::system.acctest.elem_matrix3_spm.port       262144                       # Cumulative packet size per connected master and slave (bytes)
system.acctest.local_bus.pkt_size_system.acctest.elem_matrix2_dma.dma::total     16187392                       # Cumulative packet size per connected master and slave (bytes)
system.acctest.local_bus.pkt_size_system.acctest.elem_matrix3_dma.dma::system.acctest.convolution1_spm.port        65536                       # Cumulative packet size per connected master and slave (bytes)
system.acctest.local_bus.pkt_size_system.acctest.elem_matrix3_dma.dma::system.acctest.elem_matrix0_spm.port       327680                       # Cumulative packet size per connected master and slave (bytes)
system.acctest.local_bus.pkt_size_system.acctest.elem_matrix3_dma.dma::system.acctest.elem_matrix1_spm.port       196608                       # Cumulative packet size per connected master and slave (bytes)
system.acctest.local_bus.pkt_size_system.acctest.elem_matrix3_dma.dma::system.acctest.elem_matrix2_spm.port       327680                       # Cumulative packet size per connected master and slave (bytes)
system.acctest.local_bus.pkt_size_system.acctest.elem_matrix3_dma.dma::system.acctest.elem_matrix3_spm.port     13500416                       # Cumulative packet size per connected master and slave (bytes)
system.acctest.local_bus.pkt_size_system.acctest.elem_matrix3_dma.dma::total     14417920                       # Cumulative packet size per connected master and slave (bytes)
system.acctest.local_bus.pkt_size_system.acctest.grayscale0_dma.dma::system.acctest.grayscale0_spm.port       786432                       # Cumulative packet size per connected master and slave (bytes)
[...]
system.cpu.icache.tags.avg_refs          16950.200000                       # Average number of references to valid blocks.
system.cpu.icache.tags.warmup_cycle                 0                       # Cycle when the warmup percentage was hit.
system.cpu.icache.tags.occ_blocks::.cpu.inst   447.618787                       # Average occupied blocks per requestor
system.cpu.icache.tags.occ_percent::.cpu.inst     0.874255                       # Average percentage of cache occupancy
system.cpu.icache.tags.occ_percent::total     0.874255                       # Average percentage of cache occupancy
system.cpu.icache.tags.occ_task_id_blocks::1024          460                       # Occupied blocks per task id
system.cpu.icache.tags.age_task_id_blocks_1024::0            3                       # Occupied blocks per task id
system.cpu.icache.tags.age_task_id_blocks_1024::3           27                       # Occupied blocks per task id
system.cpu.icache.tags.age_task_id_blocks_1024::4          430                       # Occupied blocks per task id
system.cpu.icache.tags.occ_task_id_percent::1024     0.898438                       # Percentage of cache occupancy per task id
system.cpu.icache.tags.tag_accesses           6529528                       # Number of tag accesses
system.cpu.icache.tags.data_accesses          6529528                       # Number of data accesses
system.cpu.dtb.walker.pwrStateResidencyTicks::UNDEFINED  36629388750                       # Cumulative time (in ticks) in various power states
system.cpu.dtb.stage2_mmu.stage2_tlb.walker.pwrStateResidencyTicks::UNDEFINED  36629388750                       # Cumulative time (in ticks) in various power states
system.cpu.dcache.pwrStateResidencyTicks::UNDEFINED  36629388750                       # Cumulative time (in ticks) in various power states
system.cpu.dcache.demand_hits::.cpu.data       529950                       # number of demand (read+write) hits
system.cpu.dcache.demand_hits::total           529950                       # number of demand (read+write) hits
system.cpu.dcache.overall_hits::.cpu.data       529950                       # number of overall hits
system.cpu.dcache.overall_hits::total          529950                       # number of overall hits
system.cpu.dcache.demand_misses::.cpu.data         2320                       # number of demand (read+write) misses
system.cpu.dcache.demand_misses::total           2320                       # number of demand (read+write) misses
system.cpu.dcache.overall_misses::.cpu.data         2320                       # number of overall misses
system.cpu.dcache.overall_misses::total          2320                       # number of overall misses
system.cpu.dcache.demand_miss_latency::.cpu.data    245854375                       # number of demand (read+write) miss cycles
system.cpu.dcache.demand_miss_latency::total    245854375                       # number of demand (read+write) miss cycles
system.cpu.dcache.overall_miss_latency::.cpu.data    245854375                       # number of overall miss cycles
system.cpu.dcache.overall_miss_latency::total    245854375                       # number of overall miss cycles
system.cpu.dcache.demand_accesses::.cpu.data       532270                       # number of demand (read+write) accesses
system.cpu.dcache.demand_accesses::total       532270                       # number of demand (read+write) accesses
system.cpu.dcache.overall_accesses::.cpu.data       532270                       # number of overall (read+write) accesses
system.cpu.dcache.overall_accesses::total       532270                       # number of overall (read+write) accesses
system.cpu.dcache.demand_miss_rate::.cpu.data     0.004359                       # miss rate for demand accesses
system.cpu.dcache.demand_miss_rate::total     0.004359                       # miss rate for demand accesses
system.cpu.dcache.overall_miss_rate::.cpu.data     0.004359                       # miss rate for overall accesses
system.cpu.dcache.overall_miss_rate::total     0.004359                       # miss rate for overall accesses
system.cpu.dcache.demand_avg_miss_latency::.cpu.data 105971.713362                       # average overall miss latency
system.cpu.dcache.demand_avg_miss_latency::total 105971.713362                       # average overall miss latency
system.cpu.dcache.overall_avg_miss_latency::.cpu.data 105971.713362                       # average overall miss latency
system.cpu.dcache.overall_avg_miss_latency::total 105971.713362                       # average overall miss latency
system.cpu.dcache.blocked_cycles::no_mshrs            0                       # number of cycles access was blocked
system.cpu.dcache.blocked_cycles::no_targets            0                       # number of cycles access was blocked
system.cpu.dcache.blocked::no_mshrs                 0                       # number of cycles access was blocked
system.cpu.dcache.blocked::no_targets               0                       # number of cycles access was blocked
system.cpu.dcache.avg_blocked_cycles::no_mshrs          nan                       # average number of cycles each access was blocked
system.cpu.dcache.avg_blocked_cycles::no_targets          nan                       # average number of cycles each access was blocked
system.cpu.dcache.writebacks::.writebacks         1347                       # number of writebacks
system.cpu.dcache.writebacks::total              1347                       # number of writebacks
system.cpu.dcache.demand_mshr_hits::.cpu.data           30                       # number of demand (read+write) MSHR hits
system.cpu.dcache.demand_mshr_hits::total           30                       # number of demand (read+write) MSHR hits
system.cpu.dcache.overall_mshr_hits::.cpu.data           30                       # number of overall MSHR hits
system.cpu.dcache.overall_mshr_hits::total           30                       # number of overall MSHR hits
system.cpu.dcache.demand_mshr_misses::.cpu.data         2290                       # number of demand (read+write) MSHR misses
system.cpu.dcache.demand_mshr_misses::total         2290                       # number of demand (read+write) MSHR misses
system.cpu.dcache.overall_mshr_misses::.cpu.data         2290                       # number of overall MSHR misses
system.cpu.dcache.overall_mshr_misses::total         2290                       # number of overall MSHR misses
system.cpu.dcache.overall_mshr_uncacheable_misses::.cpu.data        17420                       # number of overall MSHR uncacheable misses
system.cpu.dcache.overall_mshr_uncacheable_misses::total        17420                       # number of overall MSHR uncacheable misses
system.cpu.dcache.demand_mshr_miss_latency::.cpu.data    238964375                       # number of demand (read+write) MSHR miss cycles
system.cpu.dcache.demand_mshr_miss_latency::total    238964375                       # number of demand (read+write) MSHR miss cycles
system.cpu.dcache.overall_mshr_miss_latency::.cpu.data    238964375                       # number of overall MSHR miss cycles
system.cpu.dcache.overall_mshr_miss_latency::total    238964375                       # number of overall MSHR miss cycles
system.cpu.dcache.overall_mshr_uncacheable_latency::.cpu.data     37256750                       # number of overall MSHR uncacheable cycles
system.cpu.dcache.overall_mshr_uncacheable_latency::total     37256750                       # number of overall MSHR uncacheable cycles
system.cpu.dcache.demand_mshr_miss_rate::.cpu.data     0.004302                       # mshr miss rate for demand accesses
system.cpu.dcache.demand_mshr_miss_rate::total     0.004302                       # mshr miss rate for demand accesses
system.cpu.dcache.overall_mshr_miss_rate::.cpu.data     0.004302                       # mshr miss rate for overall accesses
system.cpu.dcache.overall_mshr_miss_rate::total     0.004302                       # mshr miss rate for overall accesses
system.cpu.dcache.demand_avg_mshr_miss_latency::.cpu.data 104351.255459                       # average overall mshr miss latency
system.cpu.dcache.demand_avg_mshr_miss_latency::total 104351.255459                       # average overall mshr miss latency
system.cpu.dcache.overall_avg_mshr_miss_latency::.cpu.data 104351.255459                       # average overall mshr miss latency
system.cpu.dcache.overall_avg_mshr_miss_latency::total 104351.255459                       # average overall mshr miss latency
system.cpu.dcache.overall_avg_mshr_uncacheable_latency::.cpu.data  2138.734214                       # average overall mshr uncacheable latency
system.cpu.dcache.overall_avg_mshr_uncacheable_latency::total  2138.734214                       # average overall mshr uncacheable latency
system.cpu.dcache.replacements                   2291                       # number of replacements
system.cpu.dcache.ReadReq_hits::.cpu.data       340951                       # number of ReadReq hits
system.cpu.dcache.ReadReq_hits::total          340951                       # number of ReadReq hits
system.cpu.dcache.ReadReq_misses::.cpu.data         2264                       # number of ReadReq misses
system.cpu.dcache.ReadReq_misses::total          2264                       # number of ReadReq misses
system.cpu.dcache.ReadReq_miss_latency::.cpu.data    239018000                       # number of ReadReq miss cycles
system.cpu.dcache.ReadReq_miss_latency::total    239018000                       # number of ReadReq miss cycles
system.cpu.dcache.ReadReq_accesses::.cpu.data       343215                       # number of ReadReq accesses(hits+misses)
system.cpu.dcache.ReadReq_accesses::total       343215                       # number of ReadReq accesses(hits+misses)
system.cpu.dcache.ReadReq_miss_rate::.cpu.data     0.006596                       # miss rate for ReadReq accesses
system.cpu.dcache.ReadReq_miss_rate::total     0.006596                       # miss rate for ReadReq accesses
system.cpu.dcache.ReadReq_avg_miss_latency::.cpu.data 105573.321555                       # average ReadReq miss latency
system.cpu.dcache.ReadReq_avg_miss_latency::total 105573.321555                       # average ReadReq miss latency
system.cpu.dcache.ReadReq_mshr_hits::.cpu.data           22                       # number of ReadReq MSHR hits
system.cpu.dcache.ReadReq_mshr_hits::total           22                       # number of ReadReq MSHR hits
system.cpu.dcache.ReadReq_mshr_misses::.cpu.data         2242                       # number of ReadReq MSHR misses
system.cpu.dcache.ReadReq_mshr_misses::total         2242                       # number of ReadReq MSHR misses
system.cpu.dcache.ReadReq_mshr_uncacheable::.cpu.data         1716                       # number of ReadReq MSHR uncacheable
system.cpu.dcache.ReadReq_mshr_uncacheable::total         1716                       # number of ReadReq MSHR uncacheable
system.cpu.dcache.ReadReq_mshr_miss_latency::.cpu.data    233300750                       # number of ReadReq MSHR miss cycles
system.cpu.dcache.ReadReq_mshr_miss_latency::total    233300750                       # number of ReadReq MSHR miss cycles
system.cpu.dcache.ReadReq_mshr_uncacheable_latency::.cpu.data     37256750                       # number of ReadReq MSHR uncacheable cycles
system.cpu.dcache.ReadReq_mshr_uncacheable_latency::total     37256750                       # number of ReadReq MSHR uncacheable cycles
system.cpu.dcache.ReadReq_mshr_miss_rate::.cpu.data     0.006532                       # mshr miss rate for ReadReq accesses
system.cpu.dcache.ReadReq_mshr_miss_rate::total     0.006532                       # mshr miss rate for ReadReq accesses
system.cpu.dcache.ReadReq_avg_mshr_miss_latency::.cpu.data 104059.210526                       # average ReadReq mshr miss latency
system.cpu.dcache.ReadReq_avg_mshr_miss_latency::total 104059.210526                       # average ReadReq mshr miss latency
system.cpu.dcache.ReadReq_avg_mshr_uncacheable_latency::.cpu.data 21711.392774                       # average ReadReq mshr uncacheable latency
system.cpu.dcache.ReadReq_avg_mshr_uncacheable_latency::total 21711.392774                       # average ReadReq mshr uncacheable latency
system.cpu.dcache.WriteReq_hits::.cpu.data       188999                       # number of WriteReq hits
system.cpu.dcache.WriteReq_hits::total         188999                       # number of WriteReq hits
system.cpu.dcache.WriteReq_misses::.cpu.data           56                       # number of WriteReq misses
system.cpu.dcache.WriteReq_misses::total           56                       # number of WriteReq misses
system.cpu.dcache.WriteReq_miss_latency::.cpu.data      6836375                       # number of WriteReq miss cycles
system.cpu.dcache.WriteReq_miss_latency::total      6836375                       # number of WriteReq miss cycles
system.cpu.dcache.WriteReq_accesses::.cpu.data       189055                       # number of WriteReq accesses(hits+misses)
system.cpu.dcache.WriteReq_accesses::total       189055                       # number of WriteReq accesses(hits+misses)
system.cpu.dcache.WriteReq_miss_rate::.cpu.data     0.000296                       # miss rate for WriteReq accesses
system.cpu.dcache.WriteReq_miss_rate::total     0.000296                       # miss rate for WriteReq accesses
system.cpu.dcache.WriteReq_avg_miss_latency::.cpu.data 122078.125000                       # average WriteReq miss latency
system.cpu.dcache.WriteReq_avg_miss_latency::total 122078.125000                       # average WriteReq miss latency
system.cpu.dcache.WriteReq_mshr_hits::.cpu.data            8                       # number of WriteReq MSHR hits
system.cpu.dcache.WriteReq_mshr_hits::total            8                       # number of WriteReq MSHR hits
system.cpu.dcache.WriteReq_mshr_misses::.cpu.data           48                       # number of WriteReq MSHR misses
system.cpu.dcache.WriteReq_mshr_misses::total           48                       # number of WriteReq MSHR misses
system.cpu.dcache.WriteReq_mshr_uncacheable::.cpu.data        15704                       # number of WriteReq MSHR uncacheable
system.cpu.dcache.WriteReq_mshr_uncacheable::total        15704                       # number of WriteReq MSHR uncacheable
system.cpu.dcache.WriteReq_mshr_miss_latency::.cpu.data      5663625                       # number of WriteReq MSHR miss cycles
system.cpu.dcache.WriteReq_mshr_miss_latency::total      5663625                       # number of WriteReq MSHR miss cycles
system.cpu.dcache.WriteReq_mshr_miss_rate::.cpu.data     0.000254                       # mshr miss rate for WriteReq accesses
system.cpu.dcache.WriteReq_mshr_miss_rate::total     0.000254                       # mshr miss rate for WriteReq accesses
system.cpu.dcache.WriteReq_avg_mshr_miss_latency::.cpu.data 117992.187500                       # average WriteReq mshr miss latency
system.cpu.dcache.WriteReq_avg_mshr_miss_latency::total 117992.187500                       # average WriteReq mshr miss latency
system.cpu.dcache.CleanInvalidReq_mshr_misses::.cpu.data       888444                       # number of CleanInvalidReq MSHR misses
system.cpu.dcache.CleanInvalidReq_mshr_misses::total       888444                       # number of CleanInvalidReq MSHR misses
system.cpu.dcache.CleanInvalidReq_mshr_miss_latency::.cpu.data   9342266375                       # number of CleanInvalidReq MSHR miss cycles
system.cpu.dcache.CleanInvalidReq_mshr_miss_latency::total   9342266375                       # number of CleanInvalidReq MSHR miss cycles
system.cpu.dcache.CleanInvalidReq_mshr_miss_rate::.cpu.data          inf                       # mshr miss rate for CleanInvalidReq accesses
system.cpu.dcache.CleanInvalidReq_mshr_miss_rate::total          inf                       # mshr miss rate for CleanInvalidReq accesses
system.cpu.dcache.CleanInvalidReq_avg_mshr_miss_latency::.cpu.data 10515.312586                       # average CleanInvalidReq mshr miss latency
system.cpu.dcache.CleanInvalidReq_avg_mshr_miss_latency::total 10515.312586                       # average CleanInvalidReq mshr miss latency
system.cpu.dcache.InvalidateReq_mshr_hits::.cpu.data       235513                       # number of InvalidateReq MSHR hits
system.cpu.dcache.InvalidateReq_mshr_hits::total       235513                       # number of InvalidateReq MSHR hits
system.cpu.dcache.InvalidateReq_mshr_misses::.cpu.data       652931                       # number of InvalidateReq MSHR misses
system.cpu.dcache.InvalidateReq_mshr_misses::total       652931                       # number of InvalidateReq MSHR misses
system.cpu.dcache.InvalidateReq_mshr_miss_latency::.cpu.data   9091605191                       # number of InvalidateReq MSHR miss cycles
system.cpu.dcache.InvalidateReq_mshr_miss_latency::total   9091605191                       # number of InvalidateReq MSHR miss cycles
system.cpu.dcache.InvalidateReq_mshr_miss_rate::.cpu.data          inf                       # mshr miss rate for InvalidateReq accesses
system.cpu.dcache.InvalidateReq_mshr_miss_rate::total          inf                       # mshr miss rate for InvalidateReq accesses
system.cpu.dcache.InvalidateReq_avg_mshr_miss_latency::.cpu.data 13924.297041                       # average InvalidateReq mshr miss latency
system.cpu.dcache.InvalidateReq_avg_mshr_miss_latency::total 13924.297041                       # average InvalidateReq mshr miss latency
system.cpu.dcache.tags.pwrStateResidencyTicks::UNDEFINED  36629388750                       # Cumulative time (in ticks) in various power states
system.cpu.dcache.tags.tagsinuse                  512                       # Cycle average of tags in use
system.cpu.dcache.tags.total_refs              534829                       # Total number of references to valid blocks.
system.cpu.dcache.tags.sampled_refs              2803                       # Sample count of references to valid blocks.
system.cpu.dcache.tags.avg_refs            190.805922                       # Average number of references to valid blocks.
system.cpu.dcache.tags.warmup_cycle                 0                       # Cycle when the warmup percentage was hit.
system.cpu.dcache.tags.occ_blocks::.cpu.data          512                       # Average occupied blocks per requestor
system.cpu.dcache.tags.occ_percent::.cpu.data            1                       # Average percentage of cache occupancy
system.cpu.dcache.tags.occ_percent::total            1                       # Average percentage of cache occupancy
system.cpu.dcache.tags.occ_task_id_blocks::1024          512                       # Occupied blocks per task id
system.cpu.dcache.tags.age_task_id_blocks_1024::0            2                       # Occupied blocks per task id
system.cpu.dcache.tags.age_task_id_blocks_1024::2           16                       # Occupied blocks per task id
system.cpu.dcache.tags.age_task_id_blocks_1024::3          229                       # Occupied blocks per task id
system.cpu.dcache.tags.age_task_id_blocks_1024::4          265                       # Occupied blocks per task id
system.cpu.dcache.tags.occ_task_id_percent::1024            1                       # Percentage of cache occupancy per task id
system.cpu.dcache.tags.tag_accesses           9238923                       # Number of tag accesses
system.cpu.dcache.tags.data_accesses          9238923                       # Number of data accesses
system.cpu.itb.walker.pwrStateResidencyTicks::UNDEFINED  36629388750                       # Cumulative time (in ticks) in various power states
system.cpu.itb.stage2_mmu.stage2_tlb.walker.pwrStateResidencyTicks::UNDEFINED  36629388750                       # Cumulative time (in ticks) in various power states

---------- End Simulation Statistics   ----------
