gem5 Simulator System.  http://gem5.org
gem5 is copyrighted software; use the --copyright option for details.

gem5 compiled Jun 12 2023 18:40:01
gem5 started Jul 14 2023 14:16:52
gem5 executing on node4x10a.cs.rochester.edu, pid 52780
command line: /u/sgupta45/gem5-SALAM/build/ARM/gem5_bus.opt --debug-flags=HWACC,CommInterface,LLVMInterface,StreamDma,NoncoherentDma,TickTimer,SchedulerStats --outdir=BM_ARM_OUT/comb_1/canny_0_deblur_1_gru_0_harris_0_lstm_0_GEDF_D configs/SALAM/scheduler.py --mem-size=4GB --mem-type=LPDDR5_6400_1x16_BG_BL32 --kernel=/u/sgupta45/gem5-SALAM/benchmarks/scheduler/sw/bin_comb_1/canny_0_deblur_1_gru_0_harris_0_lstm_0_GEDF_D.elf --vans-config-path=/u/sgupta45/VANS/config --disk-image=/u/sgupta45/gem5-SALAM/baremetal/common/fake.iso --machine-type=VExpress_GEM5_V1 --dtb-file=none --bare-metal --cpu-type=ex5_LITTLE --cpu-clock=1.6GHz --accpath=/u/sgupta45/gem5-SALAM/benchmarks --caches --cacheline_size=64 --l1d_size=32kB --l1d_assoc=4 --l1i_size=32kB --l1i_assoc=2

Global frequency set at 1000000000000 ticks per second
Cycle Counts Loaded!
Cycle Counts Loaded!
Cycle Counts Loaded!
Cycle Counts Loaded!
Cycle Counts Loaded!
Cycle Counts Loaded!
Cycle Counts Loaded!
Cycle Counts Loaded!
Cycle Counts Loaded!
Cycle Counts Loaded!
Cycle Counts Loaded!
**** REAL SIMULATION ****
123280625: global: Timer #2 started at tick 123280625
123707500: global: Timer #2 stopped at tick 123707500. Duration: 426875
129343750: system.acctest.isp0_dma: SRC:0x0000000082058e40, DST:0x0000000027000020, LEN:16900
129852500: global: Number of accelerators running = 1
132547750: system.acctest.isp0_dma: Transfer completed in 3.204 us
133152500: global: Timer #0 started at tick 133152500
134807500: global: Timer #0 stopped at tick 134807500. Duration: 1655000
134826250: global: Number of accelerators running = 1
********************************************************************************
system.acctest.isp0.compute
   ========= Performance Analysis =============
   Setup Time:                      0.236592seconds
   Simulation Time:                 806.54seconds
   System Clock:                    1GHz
   Transistor Latency:              1ns
   Runtime:                         34882 cycles
   Runtime:                         34.882 us
   Stalls:                          1 cycles
   Executed Nodes:                  34880 cycles

********************************************************************************
   ========= Performance Analysis =================
   Setup Time:                      2.36592e+08ns
   Simulation Time:                 8.0654e+11ns
   System Clock:                    1GHz
   Transistor Latency:              0ns
   Runtime:                         34882 cycles
   Runtime:                         3.4882e-06 seconds
   Stalls:                          1 cycles
       Load Only:                   0 cycles
       Store Only:                  1 cycles
       Compute Only:                0 cycles
       Compute & Store:             0 cycles
       Load & Store:                0 cycles
       Load & Compute:              0 cycles
       Load & Compute & Store:      0 cycles
   Executed Nodes:                  34880 cycles
       Load Only:                   0 cycles
       Store Only:                  1 cycles
       Compute Only:                3453 cycles
       Compute & Store:             19014 cycles
       Load & Store:                0 cycles
       Load & Compute:              2467 cycles
       Load & Compute & Store:      9945 cycles

   ========= Runtime FU's ========= (Max | Avg) ===
   Counter FU's:                      10 | 0.118075
   Integer Add/Sub FU's:              76 | 0.082082
   Integer Mul/Div FU's:              11 | 0.043888
   Integer Shifter FU's:              42 | 0.055974
   Integer Bitwise FU's:               4 | 0.059443
   Floating Point Float Add/Sub:      53 | 0.116839
   Floating Point Double Add/Sub:      0 | 0.000000
   Floating Point Float Mul/Div:      76 | 0.625626
   Floating Point Double Mul/Div:      0 | 0.000000
   0 Cycle Compare FU's:              85 | 0.664984
   GEP Instruction FU's:              33 | 0.117424
   Type Conversion FU's:             110 | 0.379700

   ========= Static FU's ==========================
   Counter FU's:                    0
   Integer Add/Sub FU's:            0
   Integer Mul/Div FU's:            0
   Integer Shifter FU's:            0
   Integer Bitwise FU's:            0
   Floating Point Float Add/Sub:    0
   Floating Point Double Add/Sub:   0
   Floating Point Float Mul/Div:    0
   Floating Point Double Mul/Div:   0
   0 Cycle Compare FU's:            0
   GEP Instruction FU's:            0
   Type Conversion FU's:            0
   Other:                           0

   ========= Pipeline Register Usage =============
   Total Number of Registers:       1620
   Max Register Usage Per Cycle:    151
   Avg Register Usage Per Cycle:    58.744711
   Avg Register Size (Bytes):       5.073357

   ========= Memory Configuration =================
   Cache Bus Ports:                 0
   Shared Cache Size:               0kB
   Local Bus Ports:                 0
   Private SPM Size:                112kB
   Private Read Ports:              0
   Private Write Ports:             0
   Private Read Bus Width:          64
   Private Write Bus Width:         64
       Memory Reads:                0
       Memory Writes:               0
   ========= Power Analysis ======================
   FU Leakage Power:                1.637787 mW 
   FU Dynamic Power:                9.655087 mW 
   FU Total Power:                  11.292874 mW 

   Registers Leakage Power:          0.021654 mW 
   Registers Dynamic Power:          3.085961 mW 
       Register Reads (Bits):        2049133
       Register Writes (Bits):       2049168
   Registers Total Power:            3.107615 mW

   SPM Leakage Power:               0.061081 mW
   SPM Read Dynamic Power:          11.103730 mW
   SPM Write Dynamic Power:         7.385230 mW
   SPM Total Power:                 18.550041 mW

   Cache Leakage Power:             0.000000 mW
   Cache Read Dynamic Power:        0.000000 mW
   Cache Write Dynamic Power:       0.000000 mW
   Cache Total Power:               0.000000 mW

   Accelerator Power:               14.400490 mW
   Accelerator Power (SPM):         32.950531 mW
   Accelerator Power (Cache):       14.400490 mW

   ========= Area Analysis =======================
   FU Area:                         176023.796875 um^2 (0.176024 mm^2)
   Register Area:                   1760.064941 um^2 (0.001760 mm^2)
   SPM Area:                        2165.394891 um^2 (0.002165 mm^2)
   Cache Area:                      0.000000 um^2 (0.000000 mm^2)

   Accelerator Area:                177783.859375 um^2 (0.177784 mm^2)
   Accelerator Area (SPM):          179949.254266 um^2 (0.179949 mm^2)
   Accelerator Area (Cache):        177783.859375 um^2 (0.177784 mm^2)

   ========= SPM Resizing  =======================
   SPM Optimized Leakage Power:     0.005964 mW
   SPM Opt Area:                    422.108128 um^2

169223750: global: Timer #0 started at tick 169223750
169526250: global: Timer #2 started at tick 169526250
169875000: global: Timer #2 stopped at tick 169875000. Duration: 348750
170603125: global: DAG ID = 0
170622500: global: Node ID = 0
170640625: global: Node deadline difference = -249
170702500: global: Predicted memory time / byte = 0 us/byte
170720625: global: Predicted memory time = 0 us
170738750: global: Predicted memory time / byte = 0 us/byte
170756875: global: Predicted memory time = 0 us
170775000: global: Predicted memory time / byte = 0 us/byte
170836250: global: Predicted memory time = 0 us
170854375: global: Predicted memory time / byte = 0 us/byte
170872500: global: Predicted memory time = 0 us
170890625: global: Predicted memory access size = 0
170908750: global: Predicted memory access size = 16900
170971250: global: Predicted memory access size = 0
170990000: global: Predicted memory access size = 0
172208750: system.acctest.grayscale0_dma: SRC:0x0000000027004224, DST:0x0000000025000020, LEN:49152
172671875: global: Timer #0 stopped at tick 172671875. Duration: 3448125
172688125: global: Number of accelerators running = 1
179909750: system.acctest.grayscale0_dma: Transfer completed in 7.701 us
180006250: global: Timer #0 started at tick 180006250
181025000: global: Timer #0 stopped at tick 181025000. Duration: 1018750
181041250: global: Number of accelerators running = 1
********************************************************************************
system.acctest.grayscale0.compute
   ========= Performance Analysis =============
   Setup Time:                      0.013561seconds
   Simulation Time:                 240.280603seconds
   System Clock:                    1.000000GHz
   Transistor Latency:              1ns
   Runtime:                         10263 cycles
   Runtime:                         10.263000 us
   Stalls:                          1 cycles
   Executed Nodes:                  10261 cycles

********************************************************************************
   ========= Performance Analysis =================
   Setup Time:                      13561015.000000ns
   Simulation Time:                 240280602827.000000ns
   System Clock:                    1.000000GHz
   Transistor Latency:              0ns
   Runtime:                         10263 cycles
   Runtime:                         0.000001 seconds
   Stalls:                          1 cycles
       Load Only:                   0 cycles
       Store Only:                  1 cycles
       Compute Only:                0 cycles
       Compute & Store:             0 cycles
       Load & Store:                0 cycles
       Load & Compute:              0 cycles
       Load & Compute & Store:      0 cycles
   Executed Nodes:                  10261 cycles
       Load Only:                   0 cycles
       Store Only:                  1 cycles
       Compute Only:                88 cycles
       Compute & Store:             344 cycles
       Load & Store:                0 cycles
       Load & Compute:              1981 cycles
       Load & Compute & Store:      7847 cycles

   ========= Runtime FU's ========= (Max | Avg) ===
   Counter FU's:                      24 | 0.199556
   Integer Add/Sub FU's:               0 | 0.000000
   Integer Mul/Div FU's:               8 | 0.199552
   Integer Shifter FU's:               0 | 0.000000
   Integer Bitwise FU's:               1 | 0.000097
   Floating Point Float Add/Sub:      49 | 0.114264
   Floating Point Double Add/Sub:      0 | 0.000000
   Floating Point Float Mul/Div:      42 | 0.114129
   Floating Point Double Mul/Div:      0 | 0.000000
   0 Cycle Compare FU's:               9 | 0.066626
   GEP Instruction FU's:              36 | 0.177452
   Type Conversion FU's:              76 | 0.401969

   ========= Static FU's ==========================
   Counter FU's:                    0
   Integer Add/Sub FU's:            0
   Integer Mul/Div FU's:            0
   Integer Shifter FU's:            0
   Integer Bitwise FU's:            0
   Floating Point Float Add/Sub:    0
   Floating Point Double Add/Sub:   0
   Floating Point Float Mul/Div:    0
   Floating Point Double Mul/Div:   0
   0 Cycle Compare FU's:            0
   GEP Instruction FU's:            0
   Type Conversion FU's:            0
   Other:                           0

   ========= Pipeline Register Usage =============
   Total Number of Registers:       235
   Max Register Usage Per Cycle:    90
   Avg Register Usage Per Cycle:    33.924291
   Avg Register Size (Bytes):       5.841147

   ========= Memory Configuration =================
   Cache Bus Ports:                 0
   Shared Cache Size:               0kB
   Local Bus Ports:                 0
   Private SPM Size:                176kB
   Private Read Ports:              0
   Private Write Ports:             0
   Private Read Bus Width:          64
   Private Write Bus Width:         64
       Memory Reads:                0
       Memory Writes:               0
   ========= Power Analysis ======================
   FU Leakage Power:                1.178269 mW 
   FU Dynamic Power:                0.617392 mW 
   FU Total Power:                  1.795662 mW 

   Registers Leakage Power:          0.014185 mW 
   Registers Dynamic Power:          0.101057 mW 
       Register Reads (Bits):        348165
       Register Writes (Bits):       348168
   Registers Total Power:            0.115242 mW

   SPM Leakage Power:               0.089881 mW
   SPM Read Dynamic Power:          6.997296 mW
   SPM Write Dynamic Power:         2.062375 mW
   SPM Total Power:                 9.149552 mW

   Cache Leakage Power:             0.000000 mW
   Cache Read Dynamic Power:        0.000000 mW
   Cache Write Dynamic Power:       0.000000 mW
   Cache Total Power:               0.000000 mW

   Accelerator Power:               1.910904 mW
   Accelerator Power (SPM):         11.060456 mW
   Accelerator Power (Cache):       1.910904 mW

   ========= Area Analysis =======================
   FU Area:                         143348.187500 um^2 (0.143348 mm^2)
   Register Area:                   1152.968140 um^2 (0.001153 mm^2)
   SPM Area:                        3573.642862 um^2 (0.003574 mm^2)
   Cache Area:                      0.000000 um^2 (0.000000 mm^2)

   Accelerator Area:                144501.156250 um^2 (0.144501 mm^2)
   Accelerator Area (SPM):          148074.799112 um^2 (0.148075 mm^2)
   Accelerator Area (Cache):        144501.156250 um^2 (0.144501 mm^2)

   ========= SPM Resizing  =======================
   SPM Optimized Leakage Power:     0.003633 mW
   SPM Opt Area:                    364.024374 um^2

190944375: global: Timer #0 started at tick 190944375
191108125: global: Timer #2 started at tick 191108125
191145625: global: Timer #2 stopped at tick 191145625. Duration: 37500
204796625: system.acctest.grayscale0_dma: SRC:0x000000002500c020, DST:0x0000000082069200, LEN:65536
206578000: system.acctest.convolution0_dma: SRC:0x000000002500c020, DST:0x0000000022000020, LEN:65536
207057500: global: Timer #0 stopped at tick 207057500. Duration: 16113125
207073750: global: Number of accelerators running = 2
215718625: system.acctest.grayscale0_dma: Transfer completed in 10.922 us
215794375: global: Timer #0 started at tick 215794375
216292500: global: DAG ID = 0
216356250: global: Node ID = 1
216430000: global: Node deadline difference = -240
216448125: global: Predicted memory time / byte = 0 us/byte
216466250: global: Predicted memory time = 0 us
216486250: global: Predicted memory time / byte = 0 us/byte
216504375: global: Predicted memory time = 0 us
216522500: global: Predicted memory time / byte = 0 us/byte
216540625: global: Predicted memory time = 0 us
216558750: global: Predicted memory time / byte = 0 us/byte
216576875: global: Predicted memory time = 0 us
216596875: global: Predicted memory access size = 0
216615000: global: Predicted memory access size = 49152
216633125: global: Predicted memory access size = 0
216651250: global: Predicted memory access size = 65536
216771875: global: Timer #0 stopped at tick 216771875. Duration: 977500
216788125: global: Number of accelerators running = 1
220068000: system.acctest.convolution0_dma: Transfer completed in 13.49 us
220208750: global: Timer #0 started at tick 220208750
221544500: system.acctest.convolution0_dma: SRC:0x0000000082018780, DST:0x0000000022030020, LEN:100
221640500: system.acctest.convolution0_dma: Transfer completed in 0.096 us
221782500: global: Timer #0 stopped at tick 221782500. Duration: 1573750
221798750: global: Number of accelerators running = 1
221913125: global: Timer #0 started at tick 221913125
223241875: global: Timer #0 stopped at tick 223241875. Duration: 1328750
223258125: global: Number of accelerators running = 1
********************************************************************************
system.acctest.convolution0.compute
   ========= Performance Analysis =============
   Setup Time:                      0.755469seconds
   Simulation Time:                 422.544200seconds
   System Clock:                    1.000000GHz
   Transistor Latency:              1ns
   Runtime:                         1545605 cycles
   Runtime:                         1545.605000 us
   Stalls:                          0 cycles
   Executed Nodes:                  1545604 cycles

********************************************************************************
   ========= Performance Analysis =================
   Setup Time:                      755469257.000000ns
   Simulation Time:                 422544199842.000000ns
   System Clock:                    1.000000GHz
   Transistor Latency:              0ns
   Runtime:                         1545605 cycles
   Runtime:                         0.000155 seconds
   Stalls:                          0 cycles
       Load Only:                   0 cycles
       Store Only:                  0 cycles
       Compute Only:                0 cycles
       Compute & Store:             0 cycles
       Load & Store:                0 cycles
       Load & Compute:              0 cycles
       Load & Compute & Store:      0 cycles
   Executed Nodes:                  1545604 cycles
       Load Only:                   0 cycles
       Store Only:                  0 cycles
       Compute Only:                1127274 cycles
       Compute & Store:             16374 cycles
       Load & Store:                0 cycles
       Load & Compute:              401946 cycles
       Load & Compute & Store:      10 cycles

   ========= Runtime FU's ========= (Max | Avg) ===
   Counter FU's:                       3 | 0.112298
   Integer Add/Sub FU's:               4 | 0.211564
   Integer Mul/Div FU's:               1 | 0.052505
   Integer Shifter FU's:              10 | 0.005268
   Integer Bitwise FU's:               2 | 0.184266
   Floating Point Float Add/Sub:       5 | 0.207991
   Floating Point Double Add/Sub:      0 | 0.000000
   Floating Point Float Mul/Div:       2 | 0.130117
   Floating Point Double Mul/Div:      0 | 0.000000
   0 Cycle Compare FU's:              40 | 0.145956
   GEP Instruction FU's:               4 | 0.132683
   Type Conversion FU's:               7 | 0.186618

   ========= Static FU's ==========================
   Counter FU's:                    0
   Integer Add/Sub FU's:            0
   Integer Mul/Div FU's:            0
   Integer Shifter FU's:            0
   Integer Bitwise FU's:            0
   Floating Point Float Add/Sub:    0
   Floating Point Double Add/Sub:   0
   Floating Point Float Mul/Div:    0
   Floating Point Double Mul/Div:   0
   0 Cycle Compare FU's:            0
   GEP Instruction FU's:            0
   Type Conversion FU's:            0
   Other:                           0

   ========= Pipeline Register Usage =============
   Total Number of Registers:       1702
   Max Register Usage Per Cycle:    20
   Avg Register Usage Per Cycle:    6.348199
   Avg Register Size (Bytes):       5.569148

   ========= Memory Configuration =================
   Cache Bus Ports:                 0
   Shared Cache Size:               0kB
   Local Bus Ports:                 0
   Private SPM Size:                192kB
   Private Read Ports:              0
   Private Write Ports:             0
   Private Read Bus Width:          64
   Private Write Bus Width:         64
       Memory Reads:                0
       Memory Writes:               0
   ========= Power Analysis ======================
   FU Leakage Power:                0.196912 mW 
   FU Dynamic Power:                2743.028564 mW 
   FU Total Power:                  2743.225586 mW 

   Registers Leakage Power:          0.002459 mW 
   Registers Dynamic Power:          75.251152 mW 
       Register Reads (Bits):        9811808
       Register Writes (Bits):       10049727
   Registers Total Power:            75.253609 mW

   SPM Leakage Power:               0.078311 mW
   SPM Read Dynamic Power:          11.170319 mW
   SPM Write Dynamic Power:         0.953321 mW
   SPM Total Power:                 12.201951 mW

   Cache Leakage Power:             0.000000 mW
   Cache Read Dynamic Power:        0.000000 mW
   Cache Write Dynamic Power:       0.000000 mW
   Cache Total Power:               0.000000 mW

   Accelerator Power:               2818.479248 mW
   Accelerator Power (SPM):         2830.681199 mW
   Accelerator Power (Cache):       2818.479248 mW

   ========= Area Analysis =======================
   FU Area:                         22931.867188 um^2 (0.022932 mm^2)
   Register Area:                   199.868912 um^2 (0.000200 mm^2)
   SPM Area:                        1748.188735 um^2 (0.001748 mm^2)
   Cache Area:                      0.000000 um^2 (0.000000 mm^2)

   Accelerator Area:                23131.736328 um^2 (0.023132 mm^2)
   Accelerator Area (SPM):          24879.925063 um^2 (0.024880 mm^2)
   Accelerator Area (Cache):        23131.736328 um^2 (0.023132 mm^2)

   ========= SPM Resizing  =======================
   SPM Optimized Leakage Power:     0.002053 mW
   SPM Opt Area:                    145.024971 um^2

1768709375: global: Timer #0 started at tick 1768709375
1768885000: global: Timer #2 started at tick 1768885000
1768926875: global: Timer #2 stopped at tick 1768926875. Duration: 41875
1769273750: global: DAG ID = 0
1769287500: global: Node ID = 2
1769300625: global: Node deadline difference = -263
1769313125: global: Predicted memory time / byte = 0 us/byte
1769325625: global: Predicted memory time = 0 us
1769338125: global: Predicted memory time / byte = 0 us/byte
1769350625: global: Predicted memory time = 0 us
1769363125: global: Predicted memory time / byte = 0 us/byte
1769375625: global: Predicted memory time = 0 us
1769388125: global: Predicted memory time / byte = 0 us/byte
1769400625: global: Predicted memory time = 0 us
1769413125: global: Predicted memory access size = 0
1769425625: global: Predicted memory access size = 65636
1769438125: global: Predicted memory access size = 0
1769450625: global: Predicted memory access size = 0
1783385875: system.acctest.elem_matrix0_dma: SRC:0x0000000082069200, DST:0x0000000024000020, LEN:65536
1783746250: global: Timer #0 stopped at tick 1783746250. Duration: 15036875
1783762500: global: Number of accelerators running = 1
1795281875: system.acctest.elem_matrix0_dma: Transfer completed in 11.896 us
1795377500: global: Timer #0 started at tick 1795377500
1796837375: system.acctest.elem_matrix0_dma: SRC:0x0000000022010020, DST:0x0000000024010020, LEN:65536
1797115625: global: Timer #0 stopped at tick 1797115625. Duration: 1738125
1797131875: global: Number of accelerators running = 1
1807098375: system.acctest.elem_matrix0_dma: Transfer completed in 10.261 us
1807174375: global: Timer #0 started at tick 1807174375
1808698125: global: Timer #0 stopped at tick 1808698125. Duration: 1523750
1808714375: global: Number of accelerators running = 1
********************************************************************************
system.acctest.elem_matrix0.compute
   ========= Performance Analysis =============
   Setup Time:                      6.590426seconds
   Simulation Time:                 204.818826seconds
   System Clock:                    1.000000GHz
   Transistor Latency:              1ns
   Runtime:                         10944 cycles
   Runtime:                         10.944000 us
   Stalls:                          1 cycles
   Executed Nodes:                  10942 cycles

********************************************************************************
   ========= Performance Analysis =================
   Setup Time:                      6590426398.000000ns
   Simulation Time:                 204818826107.000000ns
   System Clock:                    1.000000GHz
   Transistor Latency:              0ns
   Runtime:                         10944 cycles
   Runtime:                         0.000001 seconds
   Stalls:                          1 cycles
       Load Only:                   0 cycles
       Store Only:                  1 cycles
       Compute Only:                0 cycles
       Compute & Store:             0 cycles
       Load & Store:                0 cycles
       Load & Compute:              0 cycles
       Load & Compute & Store:      0 cycles
   Executed Nodes:                  10942 cycles
       Load Only:                   0 cycles
       Store Only:                  16 cycles
       Compute Only:                1 cycles
       Compute & Store:             21 cycles
       Load & Store:                0 cycles
       Load & Compute:              18 cycles
       Load & Compute & Store:      10886 cycles

   ========= Runtime FU's ========= (Max | Avg) ===
   Counter FU's:                      32 | 0.046786
   Integer Add/Sub FU's:               0 | 0.000000
   Integer Mul/Div FU's:               0 | 0.000000
   Integer Shifter FU's:               0 | 0.000000
   Integer Bitwise FU's:               1 | 0.000091
   Floating Point Float Add/Sub:       0 | 0.000000
   Floating Point Double Add/Sub:      0 | 0.000000
   Floating Point Float Mul/Div:       0 | 0.000000
   Floating Point Double Mul/Div:      0 | 0.000000
   0 Cycle Compare FU's:             102 | 0.047066
   GEP Instruction FU's:              96 | 0.046784
   Type Conversion FU's:               7 | 0.006775

   ========= Static FU's ==========================
   Counter FU's:                    0
   Integer Add/Sub FU's:            0
   Integer Mul/Div FU's:            0
   Integer Shifter FU's:            0
   Integer Bitwise FU's:            0
   Floating Point Float Add/Sub:    0
   Floating Point Double Add/Sub:   0
   Floating Point Float Mul/Div:    0
   Floating Point Double Mul/Div:   0
   0 Cycle Compare FU's:            0
   GEP Instruction FU's:            0
   Type Conversion FU's:            0
   Other:                           0

   ========= Pipeline Register Usage =============
   Total Number of Registers:       5641
   Max Register Usage Per Cycle:    137
   Avg Register Usage Per Cycle:    12.117690
   Avg Register Size (Bytes):       5.980606

   ========= Memory Configuration =================
   Cache Bus Ports:                 0
   Shared Cache Size:               0kB
   Local Bus Ports:                 0
   Private SPM Size:                256kB
   Private Read Ports:              0
   Private Write Ports:             0
   Private Read Bus Width:          64
   Private Write Bus Width:         64
       Memory Reads:                0
       Memory Writes:               0
   ========= Power Analysis ======================
   FU Leakage Power:                0.000611 mW 
   FU Dynamic Power:                0.036818 mW 
   FU Total Power:                  0.037429 mW 

   Registers Leakage Power:          0.005281 mW 
   Registers Dynamic Power:          0.015342 mW 
       Register Reads (Bits):        132616
       Register Writes (Bits):       133658
   Registers Total Power:            0.020624 mW

   SPM Leakage Power:               0.104100 mW
   SPM Read Dynamic Power:          1.997266 mW
   SPM Write Dynamic Power:         0.953321 mW
   SPM Total Power:                 3.054688 mW

   Cache Leakage Power:             0.000000 mW
   Cache Read Dynamic Power:        0.000000 mW
   Cache Write Dynamic Power:       0.000000 mW
   Cache Total Power:               0.000000 mW

   Accelerator Power:               0.058053 mW
   Accelerator Power (SPM):         3.112741 mW
   Accelerator Power (Cache):       0.058053 mW

   ========= Area Analysis =======================
   FU Area:                         50.369961 um^2 (0.000050 mm^2)
   Register Area:                   429.271088 um^2 (0.000429 mm^2)
   SPM Area:                        2177.365505 um^2 (0.002177 mm^2)
   Cache Area:                      0.000000 um^2 (0.000000 mm^2)

   Accelerator Area:                479.641052 um^2 (0.000480 mm^2)
   Accelerator Area (SPM):          2657.006557 um^2 (0.002657 mm^2)
   Accelerator Area (Cache):        479.641052 um^2 (0.000480 mm^2)

   ========= SPM Resizing  =======================
   SPM Optimized Leakage Power:     0.004248 mW
   SPM Opt Area:                    178.524902 um^2

1819399375: global: Timer #0 started at tick 1819399375
1819641875: global: Timer #2 started at tick 1819641875
1819683750: global: Timer #2 stopped at tick 1819683750. Duration: 41875
1819937500: global: DAG ID = 0
1819951250: global: Node ID = 3
1819964375: global: Node deadline difference = -270
1819976875: global: Predicted memory time / byte = 0 us/byte
1819989375: global: Predicted memory time = 0 us
1820001875: global: Predicted memory time / byte = 0 us/byte
1820014375: global: Predicted memory time = 0 us
1820026875: global: Predicted memory time / byte = 0 us/byte
1820039375: global: Predicted memory time = 0 us
1820051875: global: Predicted memory time / byte = 0 us/byte
1820064375: global: Predicted memory time = 0 us
1820076875: global: Predicted memory access size = 0
1820089375: global: Predicted memory access size = 131072
1820101875: global: Predicted memory access size = 0
1820114375: global: Predicted memory access size = 0
1820926625: system.acctest.convolution0_dma: SRC:0x0000000024020020, DST:0x0000000022000020, LEN:65536
1821152500: global: Timer #0 stopped at tick 1821152500. Duration: 1753125
1821168750: global: Number of accelerators running = 1
1831187625: system.acctest.convolution0_dma: Transfer completed in 10.261 us
1831275000: global: Timer #0 started at tick 1831275000
1832160875: system.acctest.convolution0_dma: SRC:0x0000000082018800, DST:0x0000000022030020, LEN:100
1832257875: system.acctest.convolution0_dma: Transfer completed in 0.097 us
1832388125: global: Timer #0 stopped at tick 1832388125. Duration: 1113125
1832404375: global: Number of accelerators running = 1
1832513125: global: Timer #0 started at tick 1832513125
1833829375: global: Timer #0 stopped at tick 1833829375. Duration: 1316250
1833845625: global: Number of accelerators running = 1
********************************************************************************
system.acctest.convolution0.compute
   ========= Performance Analysis =============
   Setup Time:                      0.818701seconds
   Simulation Time:                 389.981416seconds
   System Clock:                    1.000000GHz
   Transistor Latency:              1ns
   Runtime:                         1545605 cycles
   Runtime:                         1545.605000 us
   Stalls:                          0 cycles
   Executed Nodes:                  1545604 cycles

********************************************************************************
   ========= Performance Analysis =================
   Setup Time:                      818700906.000000ns
   Simulation Time:                 389981416365.000000ns
   System Clock:                    1.000000GHz
   Transistor Latency:              0ns
   Runtime:                         1545605 cycles
   Runtime:                         0.000155 seconds
   Stalls:                          0 cycles
       Load Only:                   0 cycles
       Store Only:                  0 cycles
       Compute Only:                0 cycles
       Compute & Store:             0 cycles
       Load & Store:                0 cycles
       Load & Compute:              0 cycles
       Load & Compute & Store:      0 cycles
   Executed Nodes:                  1545604 cycles
       Load Only:                   0 cycles
       Store Only:                  0 cycles
       Compute Only:                1127274 cycles
       Compute & Store:             16374 cycles
       Load & Store:                0 cycles
       Load & Compute:              401946 cycles
       Load & Compute & Store:      10 cycles

   ========= Runtime FU's ========= (Max | Avg) ===
   Counter FU's:                       3 | 0.112298
   Integer Add/Sub FU's:               4 | 0.211564
   Integer Mul/Div FU's:               1 | 0.052505
   Integer Shifter FU's:              10 | 0.005268
   Integer Bitwise FU's:               2 | 0.184266
   Floating Point Float Add/Sub:       5 | 0.207991
   Floating Point Double Add/Sub:      0 | 0.000000
   Floating Point Float Mul/Div:       2 | 0.130117
   Floating Point Double Mul/Div:      0 | 0.000000
   0 Cycle Compare FU's:              40 | 0.145956
   GEP Instruction FU's:               4 | 0.132683
   Type Conversion FU's:               7 | 0.186618

   ========= Static FU's ==========================
   Counter FU's:                    0
   Integer Add/Sub FU's:            0
   Integer Mul/Div FU's:            0
   Integer Shifter FU's:            0
   Integer Bitwise FU's:            0
   Floating Point Float Add/Sub:    0
   Floating Point Double Add/Sub:   0
   Floating Point Float Mul/Div:    0
   Floating Point Double Mul/Div:   0
   0 Cycle Compare FU's:            0
   GEP Instruction FU's:            0
   Type Conversion FU's:            0
   Other:                           0

   ========= Pipeline Register Usage =============
   Total Number of Registers:       1702
   Max Register Usage Per Cycle:    20
   Avg Register Usage Per Cycle:    6.348199
   Avg Register Size (Bytes):       5.569148

   ========= Memory Configuration =================
   Cache Bus Ports:                 0
   Shared Cache Size:               0kB
   Local Bus Ports:                 0
   Private SPM Size:                192kB
   Private Read Ports:              0
   Private Write Ports:             0
   Private Read Bus Width:          64
   Private Write Bus Width:         64
       Memory Reads:                0
       Memory Writes:               0
   ========= Power Analysis ======================
   FU Leakage Power:                0.196912 mW 
   FU Dynamic Power:                2743.028564 mW 
   FU Total Power:                  2743.225586 mW 

   Registers Leakage Power:          0.002459 mW 
   Registers Dynamic Power:          75.251152 mW 
       Register Reads (Bits):        9811808
       Register Writes (Bits):       10049727
   Registers Total Power:            75.253609 mW

   SPM Leakage Power:               0.078311 mW
   SPM Read Dynamic Power:          16.237008 mW
   SPM Write Dynamic Power:         2.044305 mW
   SPM Total Power:                 18.359623 mW

   Cache Leakage Power:             0.000000 mW
   Cache Read Dynamic Power:        0.000000 mW
   Cache Write Dynamic Power:       0.000000 mW
   Cache Total Power:               0.000000 mW

   Accelerator Power:               2818.479248 mW
   Accelerator Power (SPM):         2836.838872 mW
   Accelerator Power (Cache):       2818.479248 mW

   ========= Area Analysis =======================
   FU Area:                         22931.867188 um^2 (0.022932 mm^2)
   Register Area:                   199.868912 um^2 (0.000200 mm^2)
   SPM Area:                        1748.188735 um^2 (0.001748 mm^2)
   Cache Area:                      0.000000 um^2 (0.000000 mm^2)

   Accelerator Area:                23131.736328 um^2 (0.023132 mm^2)
   Accelerator Area (SPM):          24879.925063 um^2 (0.024880 mm^2)
   Accelerator Area (Cache):        23131.736328 um^2 (0.023132 mm^2)

   ========= SPM Resizing  =======================
   SPM Optimized Leakage Power:     0.002053 mW
   SPM Opt Area:                    145.024971 um^2

3379304375: global: Timer #0 started at tick 3379304375
3379541250: global: Timer #2 started at tick 3379541250
3379571875: global: Timer #2 stopped at tick 3379571875. Duration: 30625
3379823750: global: DAG ID = 0
3379837500: global: Node ID = 4
3379850625: global: Node deadline difference = -287
3379863125: global: Predicted memory time / byte = 0 us/byte
3379875625: global: Predicted memory time = 0 us
3379888125: global: Predicted memory time / byte = 0 us/byte
3379900625: global: Predicted memory time = 0 us
3379913125: global: Predicted memory time / byte = 0 us/byte
3379925625: global: Predicted memory time = 0 us
3379938125: global: Predicted memory time / byte = 0 us/byte
3379950625: global: Predicted memory time = 0 us
3379963125: global: Predicted memory access size = 0
3379975625: global: Predicted memory access size = 65636
3379988125: global: Predicted memory access size = 0
3380000625: global: Predicted memory access size = 0
3393374500: system.acctest.elem_matrix0_dma: SRC:0x0000000082048cc0, DST:0x0000000024000020, LEN:65536
3393571875: global: Timer #0 stopped at tick 3393571875. Duration: 14267500
3393588125: global: Number of accelerators running = 1
3405257500: system.acctest.elem_matrix0_dma: Transfer completed in 11.883 us
3405343750: global: Timer #0 started at tick 3405343750
3406206625: system.acctest.elem_matrix0_dma: SRC:0x0000000022010020, DST:0x0000000024010020, LEN:65536
3406431250: global: Timer #0 stopped at tick 3406431250. Duration: 1087500
3406447500: global: Number of accelerators running = 1
3416467625: system.acctest.elem_matrix0_dma: Transfer completed in 10.261 us
3416544375: global: Timer #0 started at tick 3416544375
3417876875: global: Timer #0 stopped at tick 3417876875. Duration: 1332500
3417893125: global: Number of accelerators running = 1
********************************************************************************
system.acctest.elem_matrix0.compute
   ========= Performance Analysis =============
   Setup Time:                      5.502655seconds
   Simulation Time:                 203.563772seconds
   System Clock:                    1.000000GHz
   Transistor Latency:              1ns
   Runtime:                         10932 cycles
   Runtime:                         10.932000 us
   Stalls:                          1 cycles
   Executed Nodes:                  10930 cycles

********************************************************************************
   ========= Performance Analysis =================
   Setup Time:                      5502654794.000000ns
   Simulation Time:                 203563771775.000000ns
   System Clock:                    1.000000GHz
   Transistor Latency:              0ns
   Runtime:                         10932 cycles
   Runtime:                         0.000001 seconds
   Stalls:                          1 cycles
       Load Only:                   0 cycles
       Store Only:                  1 cycles
       Compute Only:                0 cycles
       Compute & Store:             0 cycles
       Load & Store:                0 cycles
       Load & Compute:              0 cycles
       Load & Compute & Store:      0 cycles
   Executed Nodes:                  10930 cycles
       Load Only:                   0 cycles
       Store Only:                  4 cycles
       Compute Only:                1 cycles
       Compute & Store:             21 cycles
       Load & Store:                0 cycles
       Load & Compute:              6 cycles
       Load & Compute & Store:      10898 cycles

   ========= Runtime FU's ========= (Max | Avg) ===
   Counter FU's:                      32 | 0.046838
   Integer Add/Sub FU's:               0 | 0.000000
   Integer Mul/Div FU's:               0 | 0.000000
   Integer Shifter FU's:               0 | 0.000000
   Integer Bitwise FU's:               1 | 0.000091
   Floating Point Float Add/Sub:       0 | 0.000000
   Floating Point Double Add/Sub:      0 | 0.000000
   Floating Point Float Mul/Div:      34 | 0.044252
   Floating Point Double Mul/Div:      0 | 0.000000
   0 Cycle Compare FU's:             102 | 0.046945
   GEP Instruction FU's:              96 | 0.046835
   Type Conversion FU's:               7 | 0.006782

   ========= Static FU's ==========================
   Counter FU's:                    0
   Integer Add/Sub FU's:            0
   Integer Mul/Div FU's:            0
   Integer Shifter FU's:            0
   Integer Bitwise FU's:            0
   Floating Point Float Add/Sub:    0
   Floating Point Double Add/Sub:   0
   Floating Point Float Mul/Div:    0
   Floating Point Double Mul/Div:   0
   0 Cycle Compare FU's:            0
   GEP Instruction FU's:            0
   Type Conversion FU's:            0
   Other:                           0

   ========= Pipeline Register Usage =============
   Total Number of Registers:       5641
   Max Register Usage Per Cycle:    137
   Avg Register Usage Per Cycle:    12.130992
   Avg Register Size (Bytes):       5.980606

   ========= Memory Configuration =================
   Cache Bus Ports:                 0
   Shared Cache Size:               0kB
   Local Bus Ports:                 0
   Private SPM Size:                256kB
   Private Read Ports:              0
   Private Write Ports:             0
   Private Read Bus Width:          64
   Private Write Bus Width:         64
       Memory Reads:                0
       Memory Writes:               0
   ========= Power Analysis ======================
   FU Leakage Power:                0.045377 mW 
   FU Dynamic Power:                0.142576 mW 
   FU Total Power:                  0.187953 mW 

   Registers Leakage Power:          0.005281 mW 
   Registers Dynamic Power:          0.015326 mW 
       Register Reads (Bits):        132616
       Register Writes (Bits):       133658
   Registers Total Power:            0.020607 mW

   SPM Leakage Power:               0.104100 mW
   SPM Read Dynamic Power:          2.785289 mW
   SPM Write Dynamic Power:         2.044305 mW
   SPM Total Power:                 4.933694 mW

   Cache Leakage Power:             0.000000 mW
   Cache Read Dynamic Power:        0.000000 mW
   Cache Write Dynamic Power:       0.000000 mW
   Cache Total Power:               0.000000 mW

   Accelerator Power:               0.208559 mW
   Accelerator Power (SPM):         5.142254 mW
   Accelerator Power (Cache):       0.208559 mW

   ========= Area Analysis =======================
   FU Area:                         5472.068359 um^2 (0.005472 mm^2)
   Register Area:                   429.271088 um^2 (0.000429 mm^2)
   SPM Area:                        2177.365505 um^2 (0.002177 mm^2)
   Cache Area:                      0.000000 um^2 (0.000000 mm^2)

   Accelerator Area:                5901.339355 um^2 (0.005901 mm^2)
   Accelerator Area (SPM):          8078.704860 um^2 (0.008079 mm^2)
   Accelerator Area (Cache):        5901.339355 um^2 (0.005901 mm^2)

   ========= SPM Resizing  =======================
   SPM Optimized Leakage Power:     0.004248 mW
   SPM Opt Area:                    178.524902 um^2

3428672500: global: Timer #0 started at tick 3428672500
3428834375: global: Timer #2 started at tick 3428834375
3428862500: global: Timer #2 stopped at tick 3428862500. Duration: 28125
3442175875: system.acctest.elem_matrix0_dma: SRC:0x0000000024020020, DST:0x0000000082048cc0, LEN:65536
3443288000: system.acctest.convolution0_dma: SRC:0x0000000024020020, DST:0x0000000022000020, LEN:65536
3443512500: global: Timer #0 stopped at tick 3443512500. Duration: 14840000
3443528750: global: Number of accelerators running = 2
3453806875: system.acctest.elem_matrix0_dma: Transfer completed in 11.631 us
3453882500: global: Timer #0 started at tick 3453882500
3454095000: global: DAG ID = 0
3454108750: global: Node ID = 5
3454126875: global: Node deadline difference = -269
3454139375: global: Predicted memory time / byte = 0 us/byte
3454151875: global: Predicted memory time = 0 us
3454164375: global: Predicted memory time / byte = 0 us/byte
3454176875: global: Predicted memory time = 0 us
3454189375: global: Predicted memory time / byte = 0 us/byte
3454201875: global: Predicted memory time = 0 us
3454214375: global: Predicted memory time / byte = 0 us/byte
3454226875: global: Predicted memory time = 0 us
3454239375: global: Predicted memory access size = 0
3454251875: global: Predicted memory access size = 131072
3454264375: global: Predicted memory access size = 0
3454276875: global: Predicted memory access size = 65536
3454385625: global: Timer #0 stopped at tick 3454385625. Duration: 503125
3454401875: global: Number of accelerators running = 1
3457207000: system.acctest.convolution0_dma: Transfer completed in 13.919 us
3457293750: global: Timer #0 started at tick 3457293750
3458195875: system.acctest.convolution0_dma: SRC:0x0000000082018780, DST:0x0000000022030020, LEN:100
3458292875: system.acctest.convolution0_dma: Transfer completed in 0.097 us
3458411250: global: Timer #0 stopped at tick 3458411250. Duration: 1117500
3458427500: global: Number of accelerators running = 1
3458536250: global: Timer #0 started at tick 3458536250
3459851250: global: Timer #0 stopped at tick 3459851250. Duration: 1315000
3459867500: global: Number of accelerators running = 1
********************************************************************************
system.acctest.convolution0.compute
   ========= Performance Analysis =============
   Setup Time:                      0.608121seconds
   Simulation Time:                 368.480871seconds
   System Clock:                    1.000000GHz
   Transistor Latency:              1ns
   Runtime:                         1545605 cycles
   Runtime:                         1545.605000 us
   Stalls:                          0 cycles
   Executed Nodes:                  1545604 cycles

********************************************************************************
   ========= Performance Analysis =================
   Setup Time:                      608120780.000000ns
   Simulation Time:                 368480871468.000000ns
   System Clock:                    1.000000GHz
   Transistor Latency:              0ns
   Runtime:                         1545605 cycles
   Runtime:                         0.000155 seconds
   Stalls:                          0 cycles
       Load Only:                   0 cycles
       Store Only:                  0 cycles
       Compute Only:                0 cycles
       Compute & Store:             0 cycles
       Load & Store:                0 cycles
       Load & Compute:              0 cycles
       Load & Compute & Store:      0 cycles
   Executed Nodes:                  1545604 cycles
       Load Only:                   0 cycles
       Store Only:                  0 cycles
       Compute Only:                1127274 cycles
       Compute & Store:             16374 cycles
       Load & Store:                0 cycles
       Load & Compute:              401946 cycles
       Load & Compute & Store:      10 cycles

   ========= Runtime FU's ========= (Max | Avg) ===
   Counter FU's:                       3 | 0.112298
   Integer Add/Sub FU's:               4 | 0.211564
   Integer Mul/Div FU's:               1 | 0.052505
   Integer Shifter FU's:              10 | 0.005268
   Integer Bitwise FU's:               2 | 0.184266
   Floating Point Float Add/Sub:       5 | 0.207991
   Floating Point Double Add/Sub:      0 | 0.000000
   Floating Point Float Mul/Div:       2 | 0.130117
   Floating Point Double Mul/Div:      0 | 0.000000
   0 Cycle Compare FU's:              40 | 0.145956
   GEP Instruction FU's:               4 | 0.132683
   Type Conversion FU's:               7 | 0.186618

   ========= Static FU's ==========================
   Counter FU's:                    0
   Integer Add/Sub FU's:            0
   Integer Mul/Div FU's:            0
   Integer Shifter FU's:            0
   Integer Bitwise FU's:            0
   Floating Point Float Add/Sub:    0
   Floating Point Double Add/Sub:   0
   Floating Point Float Mul/Div:    0
   Floating Point Double Mul/Div:   0
   0 Cycle Compare FU's:            0
   GEP Instruction FU's:            0
   Type Conversion FU's:            0
   Other:                           0

   ========= Pipeline Register Usage =============
   Total Number of Registers:       1702
   Max Register Usage Per Cycle:    20
   Avg Register Usage Per Cycle:    6.348199
   Avg Register Size (Bytes):       5.569148

   ========= Memory Configuration =================
   Cache Bus Ports:                 0
   Shared Cache Size:               0kB
   Local Bus Ports:                 0
   Private SPM Size:                192kB
   Private Read Ports:              0
   Private Write Ports:             0
   Private Read Bus Width:          64
   Private Write Bus Width:         64
       Memory Reads:                0
       Memory Writes:               0
   ========= Power Analysis ======================
   FU Leakage Power:                0.196912 mW 
   FU Dynamic Power:                2743.028564 mW 
   FU Total Power:                  2743.225586 mW 

   Registers Leakage Power:          0.002459 mW 
   Registers Dynamic Power:          75.251152 mW 
       Register Reads (Bits):        9811808
       Register Writes (Bits):       10049727
   Registers Total Power:            75.253609 mW

   SPM Leakage Power:               0.078311 mW
   SPM Read Dynamic Power:          19.450047 mW
   SPM Write Dynamic Power:         2.457440 mW
   SPM Total Power:                 21.985798 mW

   Cache Leakage Power:             0.000000 mW
   Cache Read Dynamic Power:        0.000000 mW
   Cache Write Dynamic Power:       0.000000 mW
   Cache Total Power:               0.000000 mW

   Accelerator Power:               2818.479248 mW
   Accelerator Power (SPM):         2840.465046 mW
   Accelerator Power (Cache):       2818.479248 mW

   ========= Area Analysis =======================
   FU Area:                         22931.867188 um^2 (0.022932 mm^2)
   Register Area:                   199.868912 um^2 (0.000200 mm^2)
   SPM Area:                        1748.188735 um^2 (0.001748 mm^2)
   Cache Area:                      0.000000 um^2 (0.000000 mm^2)

   Accelerator Area:                23131.736328 um^2 (0.023132 mm^2)
   Accelerator Area (SPM):          24879.925063 um^2 (0.024880 mm^2)
   Accelerator Area (Cache):        23131.736328 um^2 (0.023132 mm^2)

   ========= SPM Resizing  =======================
   SPM Optimized Leakage Power:     0.002053 mW
   SPM Opt Area:                    145.024971 um^2

5005325000: global: Timer #0 started at tick 5005325000
5005487500: global: Timer #2 started at tick 5005487500
5005515625: global: Timer #2 stopped at tick 5005515625. Duration: 28125
5005758750: global: DAG ID = 0
5005772500: global: Node ID = 6
5005785625: global: Node deadline difference = -294
5005798125: global: Predicted memory time / byte = 0 us/byte
5005810625: global: Predicted memory time = 0 us
5005823125: global: Predicted memory time / byte = 0 us/byte
5005835625: global: Predicted memory time = 0 us
5005848125: global: Predicted memory time / byte = 0 us/byte
5005860625: global: Predicted memory time = 0 us
5005873125: global: Predicted memory time / byte = 0 us/byte
5005885625: global: Predicted memory time = 0 us
5005898125: global: Predicted memory access size = 0
5005910625: global: Predicted memory access size = 65636
5005923125: global: Predicted memory access size = 0
5005935625: global: Predicted memory access size = 0
5019164500: system.acctest.elem_matrix0_dma: SRC:0x0000000082069200, DST:0x0000000024000020, LEN:65536
5019361875: global: Timer #0 stopped at tick 5019361875. Duration: 14036875
5019378125: global: Number of accelerators running = 1
5031145500: system.acctest.elem_matrix0_dma: Transfer completed in 11.981 us
5031231875: global: Timer #0 started at tick 5031231875
5032111625: system.acctest.elem_matrix0_dma: SRC:0x0000000022010020, DST:0x0000000024010020, LEN:65536
5032329375: global: Timer #0 stopped at tick 5032329375. Duration: 1097500
5032345625: global: Number of accelerators running = 1
5042372625: system.acctest.elem_matrix0_dma: Transfer completed in 10.261 us
5042449375: global: Timer #0 started at tick 5042449375
5043776875: global: Timer #0 stopped at tick 5043776875. Duration: 1327500
5043793125: global: Number of accelerators running = 1
********************************************************************************
system.acctest.elem_matrix0.compute
   ========= Performance Analysis =============
   Setup Time:                      6.607235seconds
   Simulation Time:                 217.906667seconds
   System Clock:                    1.000000GHz
   Transistor Latency:              1ns
   Runtime:                         10944 cycles
   Runtime:                         10.944000 us
   Stalls:                          1 cycles
   Executed Nodes:                  10942 cycles

********************************************************************************
   ========= Performance Analysis =================
   Setup Time:                      6607234888.000000ns
   Simulation Time:                 217906667269.000000ns
   System Clock:                    1.000000GHz
   Transistor Latency:              0ns
   Runtime:                         10944 cycles
   Runtime:                         0.000001 seconds
   Stalls:                          1 cycles
       Load Only:                   0 cycles
       Store Only:                  1 cycles
       Compute Only:                0 cycles
       Compute & Store:             0 cycles
       Load & Store:                0 cycles
       Load & Compute:              0 cycles
       Load & Compute & Store:      0 cycles
   Executed Nodes:                  10942 cycles
       Load Only:                   0 cycles
       Store Only:                  16 cycles
       Compute Only:                1 cycles
       Compute & Store:             21 cycles
       Load & Store:                0 cycles
       Load & Compute:              18 cycles
       Load & Compute & Store:      10886 cycles

   ========= Runtime FU's ========= (Max | Avg) ===
   Counter FU's:                      32 | 0.046786
   Integer Add/Sub FU's:               0 | 0.000000
   Integer Mul/Div FU's:               0 | 0.000000
   Integer Shifter FU's:               0 | 0.000000
   Integer Bitwise FU's:               1 | 0.000091
   Floating Point Float Add/Sub:       0 | 0.000000
   Floating Point Double Add/Sub:      0 | 0.000000
   Floating Point Float Mul/Div:       0 | 0.000000
   Floating Point Double Mul/Div:      0 | 0.000000
   0 Cycle Compare FU's:             102 | 0.047066
   GEP Instruction FU's:              96 | 0.046784
   Type Conversion FU's:               7 | 0.006775

   ========= Static FU's ==========================
   Counter FU's:                    0
   Integer Add/Sub FU's:            0
   Integer Mul/Div FU's:            0
   Integer Shifter FU's:            0
   Integer Bitwise FU's:            0
   Floating Point Float Add/Sub:    0
   Floating Point Double Add/Sub:   0
   Floating Point Float Mul/Div:    0
   Floating Point Double Mul/Div:   0
   0 Cycle Compare FU's:            0
   GEP Instruction FU's:            0
   Type Conversion FU's:            0
   Other:                           0

   ========= Pipeline Register Usage =============
   Total Number of Registers:       5641
   Max Register Usage Per Cycle:    137
   Avg Register Usage Per Cycle:    12.117690
   Avg Register Size (Bytes):       5.980606

   ========= Memory Configuration =================
   Cache Bus Ports:                 0
   Shared Cache Size:               0kB
   Local Bus Ports:                 0
   Private SPM Size:                256kB
   Private Read Ports:              0
   Private Write Ports:             0
   Private Read Bus Width:          64
   Private Write Bus Width:         64
       Memory Reads:                0
       Memory Writes:               0
   ========= Power Analysis ======================
   FU Leakage Power:                0.000611 mW 
   FU Dynamic Power:                0.036818 mW 
   FU Total Power:                  0.037429 mW 

   Registers Leakage Power:          0.005281 mW 
   Registers Dynamic Power:          0.015342 mW 
       Register Reads (Bits):        132616
       Register Writes (Bits):       133658
   Registers Total Power:            0.020624 mW

   SPM Leakage Power:               0.104100 mW
   SPM Read Dynamic Power:          3.776796 mW
   SPM Write Dynamic Power:         2.457440 mW
   SPM Total Power:                 6.338336 mW

   Cache Leakage Power:             0.000000 mW
   Cache Read Dynamic Power:        0.000000 mW
   Cache Write Dynamic Power:       0.000000 mW
   Cache Total Power:               0.000000 mW

   Accelerator Power:               0.058053 mW
   Accelerator Power (SPM):         6.396389 mW
   Accelerator Power (Cache):       0.058053 mW

   ========= Area Analysis =======================
   FU Area:                         50.369961 um^2 (0.000050 mm^2)
   Register Area:                   429.271088 um^2 (0.000429 mm^2)
   SPM Area:                        2177.365505 um^2 (0.002177 mm^2)
   Cache Area:                      0.000000 um^2 (0.000000 mm^2)

   Accelerator Area:                479.641052 um^2 (0.000480 mm^2)
   Accelerator Area (SPM):          2657.006557 um^2 (0.002657 mm^2)
   Accelerator Area (Cache):        479.641052 um^2 (0.000480 mm^2)

   ========= SPM Resizing  =======================
   SPM Optimized Leakage Power:     0.004248 mW
   SPM Opt Area:                    178.524902 um^2

5054584375: global: Timer #0 started at tick 5054584375
5054741250: global: Timer #2 started at tick 5054741250
5054769375: global: Timer #2 stopped at tick 5054769375. Duration: 28125
5055015000: global: DAG ID = 0
5055028750: global: Node ID = 7
5055041875: global: Node deadline difference = -302
5055054375: global: Predicted memory time / byte = 0 us/byte
5055066875: global: Predicted memory time = 0 us
5055079375: global: Predicted memory time / byte = 0 us/byte
5055091875: global: Predicted memory time = 0 us
5055104375: global: Predicted memory time / byte = 0 us/byte
5055116875: global: Predicted memory time = 0 us
5055129375: global: Predicted memory time / byte = 0 us/byte
5055141875: global: Predicted memory time = 0 us
5055154375: global: Predicted memory access size = 0
5055166875: global: Predicted memory access size = 131072
5055179375: global: Predicted memory access size = 0
5055191875: global: Predicted memory access size = 0
5055954500: system.acctest.convolution0_dma: SRC:0x0000000024020020, DST:0x0000000022000020, LEN:65536
5056177500: global: Timer #0 stopped at tick 5056177500. Duration: 1593125
5056193750: global: Number of accelerators running = 1
5066215500: system.acctest.convolution0_dma: Transfer completed in 10.261 us
5066301875: global: Timer #0 started at tick 5066301875
5067200875: system.acctest.convolution0_dma: SRC:0x0000000082018800, DST:0x0000000022030020, LEN:100
5067297875: system.acctest.convolution0_dma: Transfer completed in 0.097 us
5067428125: global: Timer #0 stopped at tick 5067428125. Duration: 1126250
5067444375: global: Number of accelerators running = 1
5067553125: global: Timer #0 started at tick 5067553125
5068871250: global: Timer #0 stopped at tick 5068871250. Duration: 1318125
5068887500: global: Number of accelerators running = 1
********************************************************************************
system.acctest.convolution0.compute
   ========= Performance Analysis =============
   Setup Time:                      0.942370seconds
   Simulation Time:                 410.426543seconds
   System Clock:                    1.000000GHz
   Transistor Latency:              1ns
   Runtime:                         1545605 cycles
   Runtime:                         1545.605000 us
   Stalls:                          0 cycles
   Executed Nodes:                  1545604 cycles

********************************************************************************
   ========= Performance Analysis =================
   Setup Time:                      942369934.000000ns
   Simulation Time:                 410426542505.000000ns
   System Clock:                    1.000000GHz
   Transistor Latency:              0ns
   Runtime:                         1545605 cycles
   Runtime:                         0.000155 seconds
   Stalls:                          0 cycles
       Load Only:                   0 cycles
       Store Only:                  0 cycles
       Compute Only:                0 cycles
       Compute & Store:             0 cycles
       Load & Store:                0 cycles
       Load & Compute:              0 cycles
       Load & Compute & Store:      0 cycles
   Executed Nodes:                  1545604 cycles
       Load Only:                   0 cycles
       Store Only:                  0 cycles
       Compute Only:                1127274 cycles
       Compute & Store:             16374 cycles
       Load & Store:                0 cycles
       Load & Compute:              401946 cycles
       Load & Compute & Store:      10 cycles

   ========= Runtime FU's ========= (Max | Avg) ===
   Counter FU's:                       3 | 0.112298
   Integer Add/Sub FU's:               4 | 0.211564
   Integer Mul/Div FU's:               1 | 0.052505
   Integer Shifter FU's:              10 | 0.005268
   Integer Bitwise FU's:               2 | 0.184266
   Floating Point Float Add/Sub:       5 | 0.207991
   Floating Point Double Add/Sub:      0 | 0.000000
   Floating Point Float Mul/Div:       2 | 0.130117
   Floating Point Double Mul/Div:      0 | 0.000000
   0 Cycle Compare FU's:              40 | 0.145956
   GEP Instruction FU's:               4 | 0.132683
   Type Conversion FU's:               7 | 0.186618

   ========= Static FU's ==========================
   Counter FU's:                    0
   Integer Add/Sub FU's:            0
   Integer Mul/Div FU's:            0
   Integer Shifter FU's:            0
   Integer Bitwise FU's:            0
   Floating Point Float Add/Sub:    0
   Floating Point Double Add/Sub:   0
   Floating Point Float Mul/Div:    0
   Floating Point Double Mul/Div:   0
   0 Cycle Compare FU's:            0
   GEP Instruction FU's:            0
   Type Conversion FU's:            0
   Other:                           0

   ========= Pipeline Register Usage =============
   Total Number of Registers:       1702
   Max Register Usage Per Cycle:    20
   Avg Register Usage Per Cycle:    6.348199
   Avg Register Size (Bytes):       5.569148

   ========= Memory Configuration =================
   Cache Bus Ports:                 0
   Shared Cache Size:               0kB
   Local Bus Ports:                 0
   Private SPM Size:                192kB
   Private Read Ports:              0
   Private Write Ports:             0
   Private Read Bus Width:          64
   Private Write Bus Width:         64
       Memory Reads:                0
       Memory Writes:               0
   ========= Power Analysis ======================
   FU Leakage Power:                0.196912 mW 
   FU Dynamic Power:                2743.028564 mW 
   FU Total Power:                  2743.225586 mW 

   Registers Leakage Power:          0.002459 mW 
   Registers Dynamic Power:          75.251152 mW 
       Register Reads (Bits):        9811808
       Register Writes (Bits):       10049727
   Registers Total Power:            75.253609 mW

   SPM Leakage Power:               0.078311 mW
   SPM Read Dynamic Power:          21.750371 mW
   SPM Write Dynamic Power:         2.880682 mW
   SPM Total Power:                 24.709363 mW

   Cache Leakage Power:             0.000000 mW
   Cache Read Dynamic Power:        0.000000 mW
   Cache Write Dynamic Power:       0.000000 mW
   Cache Total Power:               0.000000 mW

   Accelerator Power:               2818.479248 mW
   Accelerator Power (SPM):         2843.188611 mW
   Accelerator Power (Cache):       2818.479248 mW

   ========= Area Analysis =======================
   FU Area:                         22931.867188 um^2 (0.022932 mm^2)
   Register Area:                   199.868912 um^2 (0.000200 mm^2)
   SPM Area:                        1748.188735 um^2 (0.001748 mm^2)
   Cache Area:                      0.000000 um^2 (0.000000 mm^2)

   Accelerator Area:                23131.736328 um^2 (0.023132 mm^2)
   Accelerator Area (SPM):          24879.925063 um^2 (0.024880 mm^2)
   Accelerator Area (Cache):        23131.736328 um^2 (0.023132 mm^2)

   ========= SPM Resizing  =======================
   SPM Optimized Leakage Power:     0.002053 mW
   SPM Opt Area:                    145.024971 um^2

6614345000: global: Timer #0 started at tick 6614345000
6614501250: global: Timer #2 started at tick 6614501250
6614529375: global: Timer #2 stopped at tick 6614529375. Duration: 28125
6614771875: global: DAG ID = 0
6614785625: global: Node ID = 8
6614798750: global: Node deadline difference = -319
6614811250: global: Predicted memory time / byte = 0 us/byte
6614823750: global: Predicted memory time = 0 us
6614836250: global: Predicted memory time / byte = 0 us/byte
6614848750: global: Predicted memory time = 0 us
6614861250: global: Predicted memory time / byte = 0 us/byte
6614873750: global: Predicted memory time = 0 us
6614886250: global: Predicted memory time / byte = 0 us/byte
6614898750: global: Predicted memory time = 0 us
6614911250: global: Predicted memory access size = 0
6614923750: global: Predicted memory access size = 65636
6614936250: global: Predicted memory access size = 0
6614948750: global: Predicted memory access size = 0
6628190875: system.acctest.elem_matrix0_dma: SRC:0x0000000082048cc0, DST:0x0000000024000020, LEN:65536
6628388125: global: Timer #0 stopped at tick 6628388125. Duration: 14043125
6628404375: global: Number of accelerators running = 1
6640089875: system.acctest.elem_matrix0_dma: Transfer completed in 11.899 us
6640175625: global: Timer #0 started at tick 6640175625
6641048750: system.acctest.elem_matrix0_dma: SRC:0x0000000022010020, DST:0x0000000024010020, LEN:65536
6641266250: global: Timer #0 stopped at tick 6641266250. Duration: 1090625
6641282500: global: Number of accelerators running = 1
6651309750: system.acctest.elem_matrix0_dma: Transfer completed in 10.261 us
6651385000: global: Timer #0 started at tick 6651385000
6652711875: global: Timer #0 stopped at tick 6652711875. Duration: 1326875
6652728125: global: Number of accelerators running = 1
********************************************************************************
system.acctest.elem_matrix0.compute
   ========= Performance Analysis =============
   Setup Time:                      7.941460seconds
   Simulation Time:                 215.359969seconds
   System Clock:                    1.000000GHz
   Transistor Latency:              1ns
   Runtime:                         10932 cycles
   Runtime:                         10.932000 us
   Stalls:                          1 cycles
   Executed Nodes:                  10930 cycles

********************************************************************************
   ========= Performance Analysis =================
   Setup Time:                      7941459764.000000ns
   Simulation Time:                 215359969039.000000ns
   System Clock:                    1.000000GHz
   Transistor Latency:              0ns
   Runtime:                         10932 cycles
   Runtime:                         0.000001 seconds
   Stalls:                          1 cycles
       Load Only:                   0 cycles
       Store Only:                  1 cycles
       Compute Only:                0 cycles
       Compute & Store:             0 cycles
       Load & Store:                0 cycles
       Load & Compute:              0 cycles
       Load & Compute & Store:      0 cycles
   Executed Nodes:                  10930 cycles
       Load Only:                   0 cycles
       Store Only:                  4 cycles
       Compute Only:                1 cycles
       Compute & Store:             21 cycles
       Load & Store:                0 cycles
       Load & Compute:              6 cycles
       Load & Compute & Store:      10898 cycles

   ========= Runtime FU's ========= (Max | Avg) ===
   Counter FU's:                      32 | 0.046838
   Integer Add/Sub FU's:               0 | 0.000000
   Integer Mul/Div FU's:               0 | 0.000000
   Integer Shifter FU's:               0 | 0.000000
   Integer Bitwise FU's:               1 | 0.000091
   Floating Point Float Add/Sub:       0 | 0.000000
   Floating Point Double Add/Sub:      0 | 0.000000
   Floating Point Float Mul/Div:      34 | 0.044252
   Floating Point Double Mul/Div:      0 | 0.000000
   0 Cycle Compare FU's:             102 | 0.046945
   GEP Instruction FU's:              96 | 0.046835
   Type Conversion FU's:               7 | 0.006782

   ========= Static FU's ==========================
   Counter FU's:                    0
   Integer Add/Sub FU's:            0
   Integer Mul/Div FU's:            0
   Integer Shifter FU's:            0
   Integer Bitwise FU's:            0
   Floating Point Float Add/Sub:    0
   Floating Point Double Add/Sub:   0
   Floating Point Float Mul/Div:    0
   Floating Point Double Mul/Div:   0
   0 Cycle Compare FU's:            0
   GEP Instruction FU's:            0
   Type Conversion FU's:            0
   Other:                           0

   ========= Pipeline Register Usage =============
   Total Number of Registers:       5641
   Max Register Usage Per Cycle:    137
   Avg Register Usage Per Cycle:    12.130992
   Avg Register Size (Bytes):       5.980606

   ========= Memory Configuration =================
   Cache Bus Ports:                 0
   Shared Cache Size:               0kB
   Local Bus Ports:                 0
   Private SPM Size:                256kB
   Private Read Ports:              0
   Private Write Ports:             0
   Private Read Bus Width:          64
   Private Write Bus Width:         64
       Memory Reads:                0
       Memory Writes:               0
   ========= Power Analysis ======================
   FU Leakage Power:                0.045377 mW 
   FU Dynamic Power:                0.142576 mW 
   FU Total Power:                  0.187953 mW 

   Registers Leakage Power:          0.005281 mW 
   Registers Dynamic Power:          0.015326 mW 
       Register Reads (Bits):        132616
       Register Writes (Bits):       133658
   Registers Total Power:            0.020607 mW

   SPM Leakage Power:               0.104100 mW
   SPM Read Dynamic Power:          4.579344 mW
   SPM Write Dynamic Power:         2.880682 mW
   SPM Total Power:                 7.564127 mW

   Cache Leakage Power:             0.000000 mW
   Cache Read Dynamic Power:        0.000000 mW
   Cache Write Dynamic Power:       0.000000 mW
   Cache Total Power:               0.000000 mW

   Accelerator Power:               0.208559 mW
   Accelerator Power (SPM):         7.772686 mW
   Accelerator Power (Cache):       0.208559 mW

   ========= Area Analysis =======================
   FU Area:                         5472.068359 um^2 (0.005472 mm^2)
   Register Area:                   429.271088 um^2 (0.000429 mm^2)
   SPM Area:                        2177.365505 um^2 (0.002177 mm^2)
   Cache Area:                      0.000000 um^2 (0.000000 mm^2)

   Accelerator Area:                5901.339355 um^2 (0.005901 mm^2)
   Accelerator Area (SPM):          8078.704860 um^2 (0.008079 mm^2)
   Accelerator Area (Cache):        5901.339355 um^2 (0.005901 mm^2)

   ========= SPM Resizing  =======================
   SPM Optimized Leakage Power:     0.004248 mW
   SPM Opt Area:                    178.524902 um^2

6663507500: global: Timer #0 started at tick 6663507500
6663738750: global: Timer #2 started at tick 6663738750
6663769375: global: Timer #2 stopped at tick 6663769375. Duration: 30625
6677013750: system.acctest.elem_matrix0_dma: SRC:0x0000000024020020, DST:0x0000000082048cc0, LEN:65536
6678060000: system.acctest.convolution0_dma: SRC:0x0000000024020020, DST:0x0000000022000020, LEN:65536
6678281250: global: Timer #0 stopped at tick 6678281250. Duration: 14773750
6678297500: global: Number of accelerators running = 2
6688712750: system.acctest.elem_matrix0_dma: Transfer completed in 11.699 us
6688789375: global: Timer #0 started at tick 6688789375
6689002500: global: DAG ID = 0
6689016250: global: Node ID = 9
6689034375: global: Node deadline difference = -302
6689046875: global: Predicted memory time / byte = 0 us/byte
6689059375: global: Predicted memory time = 0 us
6689071875: global: Predicted memory time / byte = 0 us/byte
6689084375: global: Predicted memory time = 0 us
6689096875: global: Predicted memory time / byte = 0 us/byte
6689109375: global: Predicted memory time = 0 us
6689121875: global: Predicted memory time / byte = 0 us/byte
6689134375: global: Predicted memory time = 0 us
6689146875: global: Predicted memory access size = 0
6689159375: global: Predicted memory access size = 131072
6689171875: global: Predicted memory access size = 0
6689184375: global: Predicted memory access size = 65536
6689290000: global: Timer #0 stopped at tick 6689290000. Duration: 500625
6689306250: global: Number of accelerators running = 1
6692025000: system.acctest.convolution0_dma: Transfer completed in 13.965 us
6692110625: global: Timer #0 started at tick 6692110625
6693005875: system.acctest.convolution0_dma: SRC:0x0000000082018780, DST:0x0000000022030020, LEN:100
6693102875: system.acctest.convolution0_dma: Transfer completed in 0.097 us
6693221250: global: Timer #0 stopped at tick 6693221250. Duration: 1110625
6693237500: global: Number of accelerators running = 1
6693346250: global: Timer #0 started at tick 6693346250
6694654375: global: Timer #0 stopped at tick 6694654375. Duration: 1308125
6694670625: global: Number of accelerators running = 1
********************************************************************************
system.acctest.convolution0.compute
   ========= Performance Analysis =============
   Setup Time:                      1.183334seconds
   Simulation Time:                 382.085008seconds
   System Clock:                    1.000000GHz
   Transistor Latency:              1ns
   Runtime:                         1545605 cycles
   Runtime:                         1545.605000 us
   Stalls:                          0 cycles
   Executed Nodes:                  1545604 cycles

********************************************************************************
   ========= Performance Analysis =================
   Setup Time:                      1183333867.000000ns
   Simulation Time:                 382085007850.000000ns
   System Clock:                    1.000000GHz
   Transistor Latency:              0ns
   Runtime:                         1545605 cycles
   Runtime:                         0.000155 seconds
   Stalls:                          0 cycles
       Load Only:                   0 cycles
       Store Only:                  0 cycles
       Compute Only:                0 cycles
       Compute & Store:             0 cycles
       Load & Store:                0 cycles
       Load & Compute:              0 cycles
       Load & Compute & Store:      0 cycles
   Executed Nodes:                  1545604 cycles
       Load Only:                   0 cycles
       Store Only:                  0 cycles
       Compute Only:                1127274 cycles
       Compute & Store:             16374 cycles
       Load & Store:                0 cycles
       Load & Compute:              401946 cycles
       Load & Compute & Store:      10 cycles

   ========= Runtime FU's ========= (Max | Avg) ===
   Counter FU's:                       3 | 0.112298
   Integer Add/Sub FU's:               4 | 0.211564
   Integer Mul/Div FU's:               1 | 0.052505
   Integer Shifter FU's:              10 | 0.005268
   Integer Bitwise FU's:               2 | 0.184266
   Floating Point Float Add/Sub:       5 | 0.207991
   Floating Point Double Add/Sub:      0 | 0.000000
   Floating Point Float Mul/Div:       2 | 0.130117
   Floating Point Double Mul/Div:      0 | 0.000000
   0 Cycle Compare FU's:              40 | 0.145956
   GEP Instruction FU's:               4 | 0.132683
   Type Conversion FU's:               7 | 0.186618

   ========= Static FU's ==========================
   Counter FU's:                    0
   Integer Add/Sub FU's:            0
   Integer Mul/Div FU's:            0
   Integer Shifter FU's:            0
   Integer Bitwise FU's:            0
   Floating Point Float Add/Sub:    0
   Floating Point Double Add/Sub:   0
   Floating Point Float Mul/Div:    0
   Floating Point Double Mul/Div:   0
   0 Cycle Compare FU's:            0
   GEP Instruction FU's:            0
   Type Conversion FU's:            0
   Other:                           0

   ========= Pipeline Register Usage =============
   Total Number of Registers:       1702
   Max Register Usage Per Cycle:    20
   Avg Register Usage Per Cycle:    6.348199
   Avg Register Size (Bytes):       5.569148

   ========= Memory Configuration =================
   Cache Bus Ports:                 0
   Shared Cache Size:               0kB
   Local Bus Ports:                 0
   Private SPM Size:                192kB
   Private Read Ports:              0
   Private Write Ports:             0
   Private Read Bus Width:          64
   Private Write Bus Width:         64
       Memory Reads:                0
       Memory Writes:               0
   ========= Power Analysis ======================
   FU Leakage Power:                0.196912 mW 
   FU Dynamic Power:                2743.028564 mW 
   FU Total Power:                  2743.225586 mW 

   Registers Leakage Power:          0.002459 mW 
   Registers Dynamic Power:          75.251152 mW 
       Register Reads (Bits):        9811808
       Register Writes (Bits):       10049727
   Registers Total Power:            75.253609 mW

   SPM Leakage Power:               0.078311 mW
   SPM Read Dynamic Power:          24.200039 mW
   SPM Write Dynamic Power:         3.448926 mW
   SPM Total Power:                 27.727276 mW

   Cache Leakage Power:             0.000000 mW
   Cache Read Dynamic Power:        0.000000 mW
   Cache Write Dynamic Power:       0.000000 mW
   Cache Total Power:               0.000000 mW

   Accelerator Power:               2818.479248 mW
   Accelerator Power (SPM):         2846.206524 mW
   Accelerator Power (Cache):       2818.479248 mW

   ========= Area Analysis =======================
   FU Area:                         22931.867188 um^2 (0.022932 mm^2)
   Register Area:                   199.868912 um^2 (0.000200 mm^2)
   SPM Area:                        1748.188735 um^2 (0.001748 mm^2)
   Cache Area:                      0.000000 um^2 (0.000000 mm^2)

   Accelerator Area:                23131.736328 um^2 (0.023132 mm^2)
   Accelerator Area (SPM):          24879.925063 um^2 (0.024880 mm^2)
   Accelerator Area (Cache):        23131.736328 um^2 (0.023132 mm^2)

   ========= SPM Resizing  =======================
   SPM Optimized Leakage Power:     0.002053 mW
   SPM Opt Area:                    145.024971 um^2

8240129375: global: Timer #0 started at tick 8240129375
8240286250: global: Timer #2 started at tick 8240286250
8240314375: global: Timer #2 stopped at tick 8240314375. Duration: 28125
8240551875: global: DAG ID = 0
8240565625: global: Node ID = 10
8240578750: global: Node deadline difference = -326
8240591250: global: Predicted memory time / byte = 0 us/byte
8240603750: global: Predicted memory time = 0 us
8240616250: global: Predicted memory time / byte = 0 us/byte
8240628750: global: Predicted memory time = 0 us
8240641250: global: Predicted memory time / byte = 0 us/byte
8240653750: global: Predicted memory time = 0 us
8240666250: global: Predicted memory time / byte = 0 us/byte
8240678750: global: Predicted memory time = 0 us
8240691250: global: Predicted memory access size = 0
8240703750: global: Predicted memory access size = 65636
8240716250: global: Predicted memory access size = 0
8240728750: global: Predicted memory access size = 0
8253960875: system.acctest.elem_matrix0_dma: SRC:0x0000000082069200, DST:0x0000000024000020, LEN:65536
8254158125: global: Timer #0 stopped at tick 8254158125. Duration: 14028750
8254174375: global: Number of accelerators running = 1
8265910875: system.acctest.elem_matrix0_dma: Transfer completed in 11.95 us
[...]
   Executed Nodes:                  10942 cycles
       Load Only:                   0 cycles
       Store Only:                  16 cycles
       Compute Only:                1 cycles
       Compute & Store:             21 cycles
       Load & Store:                0 cycles
       Load & Compute:              18 cycles
       Load & Compute & Store:      10886 cycles

   ========= Runtime FU's ========= (Max | Avg) ===
   Counter FU's:                      32 | 0.046786
   Integer Add/Sub FU's:               0 | 0.000000
   Integer Mul/Div FU's:               0 | 0.000000
   Integer Shifter FU's:               0 | 0.000000
   Integer Bitwise FU's:               1 | 0.000091
   Floating Point Float Add/Sub:       0 | 0.000000
   Floating Point Double Add/Sub:      0 | 0.000000
   Floating Point Float Mul/Div:       0 | 0.000000
   Floating Point Double Mul/Div:      0 | 0.000000
   0 Cycle Compare FU's:             102 | 0.047066
   GEP Instruction FU's:              96 | 0.046784
   Type Conversion FU's:               7 | 0.006775

   ========= Static FU's ==========================
   Counter FU's:                    0
   Integer Add/Sub FU's:            0
   Integer Mul/Div FU's:            0
   Integer Shifter FU's:            0
   Integer Bitwise FU's:            0
   Floating Point Float Add/Sub:    0
   Floating Point Double Add/Sub:   0
   Floating Point Float Mul/Div:    0
   Floating Point Double Mul/Div:   0
   0 Cycle Compare FU's:            0
   GEP Instruction FU's:            0
   Type Conversion FU's:            0
   Other:                           0

   ========= Pipeline Register Usage =============
   Total Number of Registers:       5641
   Max Register Usage Per Cycle:    137
   Avg Register Usage Per Cycle:    12.117690
   Avg Register Size (Bytes):       5.980606

   ========= Memory Configuration =================
   Cache Bus Ports:                 0
   Shared Cache Size:               0kB
   Local Bus Ports:                 0
   Private SPM Size:                256kB
   Private Read Ports:              0
   Private Write Ports:             0
   Private Read Bus Width:          64
   Private Write Bus Width:         64
       Memory Reads:                0
       Memory Writes:               0
   ========= Power Analysis ======================
   FU Leakage Power:                0.000611 mW 
   FU Dynamic Power:                0.036818 mW 
   FU Total Power:                  0.037429 mW 

   Registers Leakage Power:          0.005281 mW 
   Registers Dynamic Power:          0.015342 mW 
       Register Reads (Bits):        132616
       Register Writes (Bits):       133658
   Registers Total Power:            0.020624 mW

   SPM Leakage Power:               0.104100 mW
   SPM Read Dynamic Power:          7.306295 mW
   SPM Write Dynamic Power:         4.890273 mW
   SPM Total Power:                 12.300669 mW

   Cache Leakage Power:             0.000000 mW
   Cache Read Dynamic Power:        0.000000 mW
   Cache Write Dynamic Power:       0.000000 mW
   Cache Total Power:               0.000000 mW

   Accelerator Power:               0.058053 mW
   Accelerator Power (SPM):         12.358723 mW
   Accelerator Power (Cache):       0.058053 mW

   ========= Area Analysis =======================
   FU Area:                         50.369961 um^2 (0.000050 mm^2)
   Register Area:                   429.271088 um^2 (0.000429 mm^2)
   SPM Area:                        2177.365505 um^2 (0.002177 mm^2)
   Cache Area:                      0.000000 um^2 (0.000000 mm^2)

   Accelerator Area:                479.641052 um^2 (0.000480 mm^2)
   Accelerator Area (SPM):          2657.006557 um^2 (0.002657 mm^2)
   Accelerator Area (Cache):        479.641052 um^2 (0.000480 mm^2)

   ========= SPM Resizing  =======================
   SPM Optimized Leakage Power:     0.004248 mW
   SPM Opt Area:                    178.524902 um^2

14758525000: global: Timer #0 started at tick 14758525000
14758756250: global: Timer #2 started at tick 14758756250
14758786875: global: Timer #2 stopped at tick 14758786875. Duration: 30625
14759020625: global: DAG ID = 0
14759034375: global: Node ID = 19
14759047500: global: Node deadline difference = -399
14759060000: global: Predicted memory time / byte = 0 us/byte
14759072500: global: Predicted memory time = 0 us
14759085000: global: Predicted memory time / byte = 0 us/byte
14759097500: global: Predicted memory time = 0 us
14759110000: global: Predicted memory time / byte = 0 us/byte
14759122500: global: Predicted memory time = 0 us
14759135000: global: Predicted memory time / byte = 0 us/byte
14759147500: global: Predicted memory time = 0 us
14759160000: global: Predicted memory access size = 0
14759172500: global: Predicted memory access size = 131072
14759185000: global: Predicted memory access size = 0
14759197500: global: Predicted memory access size = 0
14759960875: system.acctest.convolution0_dma: SRC:0x0000000024020020, DST:0x0000000022000020, LEN:65536
14760183750: global: Timer #0 stopped at tick 14760183750. Duration: 1658750
14760200000: global: Number of accelerators running = 1
14770221875: system.acctest.convolution0_dma: Transfer completed in 10.261 us
14770308125: global: Timer #0 started at tick 14770308125
14771190875: system.acctest.convolution0_dma: SRC:0x0000000082018800, DST:0x0000000022030020, LEN:100
14771316875: system.acctest.convolution0_dma: Transfer completed in 0.126 us
14771406250: global: Timer #0 stopped at tick 14771406250. Duration: 1098125
14771422500: global: Number of accelerators running = 1
14771531250: global: Timer #0 started at tick 14771531250
14772831250: global: Timer #0 stopped at tick 14772831250. Duration: 1300000
14772847500: global: Number of accelerators running = 1
********************************************************************************
system.acctest.convolution0.compute
   ========= Performance Analysis =============
   Setup Time:                      0.672188seconds
   Simulation Time:                 355.051713seconds
   System Clock:                    1.000000GHz
   Transistor Latency:              1ns
   Runtime:                         1545605 cycles
   Runtime:                         1545.605000 us
   Stalls:                          0 cycles
   Executed Nodes:                  1545604 cycles

********************************************************************************
   ========= Performance Analysis =================
   Setup Time:                      672188242.000000ns
   Simulation Time:                 355051712639.000000ns
   System Clock:                    1.000000GHz
   Transistor Latency:              0ns
   Runtime:                         1545605 cycles
   Runtime:                         0.000155 seconds
   Stalls:                          0 cycles
       Load Only:                   0 cycles
       Store Only:                  0 cycles
       Compute Only:                0 cycles
       Compute & Store:             0 cycles
       Load & Store:                0 cycles
       Load & Compute:              0 cycles
       Load & Compute & Store:      0 cycles
   Executed Nodes:                  1545604 cycles
       Load Only:                   0 cycles
       Store Only:                  0 cycles
       Compute Only:                1127274 cycles
       Compute & Store:             16374 cycles
       Load & Store:                0 cycles
       Load & Compute:              401946 cycles
       Load & Compute & Store:      10 cycles

   ========= Runtime FU's ========= (Max | Avg) ===
   Counter FU's:                       3 | 0.112298
   Integer Add/Sub FU's:               4 | 0.211564
   Integer Mul/Div FU's:               1 | 0.052505
   Integer Shifter FU's:              10 | 0.005268
   Integer Bitwise FU's:               2 | 0.184266
   Floating Point Float Add/Sub:       5 | 0.207991
   Floating Point Double Add/Sub:      0 | 0.000000
   Floating Point Float Mul/Div:       2 | 0.130117
   Floating Point Double Mul/Div:      0 | 0.000000
   0 Cycle Compare FU's:              40 | 0.145956
   GEP Instruction FU's:               4 | 0.132683
   Type Conversion FU's:               7 | 0.186618

   ========= Static FU's ==========================
   Counter FU's:                    0
   Integer Add/Sub FU's:            0
   Integer Mul/Div FU's:            0
   Integer Shifter FU's:            0
   Integer Bitwise FU's:            0
   Floating Point Float Add/Sub:    0
   Floating Point Double Add/Sub:   0
   Floating Point Float Mul/Div:    0
   Floating Point Double Mul/Div:   0
   0 Cycle Compare FU's:            0
   GEP Instruction FU's:            0
   Type Conversion FU's:            0
   Other:                           0

   ========= Pipeline Register Usage =============
   Total Number of Registers:       1702
   Max Register Usage Per Cycle:    20
   Avg Register Usage Per Cycle:    6.348199
   Avg Register Size (Bytes):       5.569148

   ========= Memory Configuration =================
   Cache Bus Ports:                 0
   Shared Cache Size:               0kB
   Local Bus Ports:                 0
   Private SPM Size:                192kB
   Private Read Ports:              0
   Private Write Ports:             0
   Private Read Bus Width:          64
   Private Write Bus Width:         64
       Memory Reads:                0
       Memory Writes:               0
   ========= Power Analysis ======================
   FU Leakage Power:                0.196912 mW 
   FU Dynamic Power:                2743.028564 mW 
   FU Total Power:                  2743.225586 mW 

   Registers Leakage Power:          0.002459 mW 
   Registers Dynamic Power:          75.251152 mW 
       Register Reads (Bits):        9811808
       Register Writes (Bits):       10049727
   Registers Total Power:            75.253609 mW

   SPM Leakage Power:               0.078311 mW
   SPM Read Dynamic Power:          34.886951 mW
   SPM Write Dynamic Power:         5.103456 mW
   SPM Total Power:                 40.068718 mW

   Cache Leakage Power:             0.000000 mW
   Cache Read Dynamic Power:        0.000000 mW
   Cache Write Dynamic Power:       0.000000 mW
   Cache Total Power:               0.000000 mW

   Accelerator Power:               2818.479248 mW
   Accelerator Power (SPM):         2858.547967 mW
   Accelerator Power (Cache):       2818.479248 mW

   ========= Area Analysis =======================
   FU Area:                         22931.867188 um^2 (0.022932 mm^2)
   Register Area:                   199.868912 um^2 (0.000200 mm^2)
   SPM Area:                        1748.188735 um^2 (0.001748 mm^2)
   Cache Area:                      0.000000 um^2 (0.000000 mm^2)

   Accelerator Area:                23131.736328 um^2 (0.023132 mm^2)
   Accelerator Area (SPM):          24879.925063 um^2 (0.024880 mm^2)
   Accelerator Area (Cache):        23131.736328 um^2 (0.023132 mm^2)

   ========= SPM Resizing  =======================
   SPM Optimized Leakage Power:     0.002053 mW
   SPM Opt Area:                    145.024971 um^2

16318305000: global: Timer #0 started at tick 16318305000
16318536250: global: Timer #2 started at tick 16318536250
16318566875: global: Timer #2 stopped at tick 16318566875. Duration: 30625
16318803750: global: DAG ID = 0
16318817500: global: Node ID = 20
16318830625: global: Node deadline difference = -416
16318843125: global: Predicted memory time / byte = 0 us/byte
16318855625: global: Predicted memory time = 0 us
16318868125: global: Predicted memory time / byte = 0 us/byte
16318880625: global: Predicted memory time = 0 us
16318893125: global: Predicted memory time / byte = 0 us/byte
16318905625: global: Predicted memory time = 0 us
16318918125: global: Predicted memory time / byte = 0 us/byte
16318930625: global: Predicted memory time = 0 us
16318943125: global: Predicted memory access size = 0
16318955625: global: Predicted memory access size = 65636
16318968125: global: Predicted memory access size = 0
16318980625: global: Predicted memory access size = 0
16332224500: system.acctest.elem_matrix0_dma: SRC:0x0000000082048cc0, DST:0x0000000024000020, LEN:65536
16332421875: global: Timer #0 stopped at tick 16332421875. Duration: 14116875
16332438125: global: Number of accelerators running = 1
16344107500: system.acctest.elem_matrix0_dma: Transfer completed in 11.883 us
16344193750: global: Timer #0 started at tick 16344193750
16345058750: system.acctest.elem_matrix0_dma: SRC:0x0000000022010020, DST:0x0000000024010020, LEN:65536
16345276250: global: Timer #0 stopped at tick 16345276250. Duration: 1082500
16345292500: global: Number of accelerators running = 1
16355319750: system.acctest.elem_matrix0_dma: Transfer completed in 10.261 us
16355395000: global: Timer #0 started at tick 16355395000
16356714375: global: Timer #0 stopped at tick 16356714375. Duration: 1319375
16356730625: global: Number of accelerators running = 1
********************************************************************************
system.acctest.elem_matrix0.compute
   ========= Performance Analysis =============
   Setup Time:                      8.109554seconds
   Simulation Time:                 196.071999seconds
   System Clock:                    1.000000GHz
   Transistor Latency:              1ns
   Runtime:                         10932 cycles
   Runtime:                         10.932000 us
   Stalls:                          1 cycles
   Executed Nodes:                  10930 cycles

********************************************************************************
   ========= Performance Analysis =================
   Setup Time:                      8109554213.999999ns
   Simulation Time:                 196071999133.000000ns
   System Clock:                    1.000000GHz
   Transistor Latency:              0ns
   Runtime:                         10932 cycles
   Runtime:                         0.000001 seconds
   Stalls:                          1 cycles
       Load Only:                   0 cycles
       Store Only:                  1 cycles
       Compute Only:                0 cycles
       Compute & Store:             0 cycles
       Load & Store:                0 cycles
       Load & Compute:              0 cycles
       Load & Compute & Store:      0 cycles
   Executed Nodes:                  10930 cycles
       Load Only:                   0 cycles
       Store Only:                  4 cycles
       Compute Only:                1 cycles
       Compute & Store:             21 cycles
       Load & Store:                0 cycles
       Load & Compute:              6 cycles
       Load & Compute & Store:      10898 cycles

   ========= Runtime FU's ========= (Max | Avg) ===
   Counter FU's:                      32 | 0.046838
   Integer Add/Sub FU's:               0 | 0.000000
   Integer Mul/Div FU's:               0 | 0.000000
   Integer Shifter FU's:               0 | 0.000000
   Integer Bitwise FU's:               1 | 0.000091
   Floating Point Float Add/Sub:       0 | 0.000000
   Floating Point Double Add/Sub:      0 | 0.000000
   Floating Point Float Mul/Div:      34 | 0.044252
   Floating Point Double Mul/Div:      0 | 0.000000
   0 Cycle Compare FU's:             102 | 0.046945
   GEP Instruction FU's:              96 | 0.046835
   Type Conversion FU's:               7 | 0.006782

   ========= Static FU's ==========================
   Counter FU's:                    0
   Integer Add/Sub FU's:            0
   Integer Mul/Div FU's:            0
   Integer Shifter FU's:            0
   Integer Bitwise FU's:            0
   Floating Point Float Add/Sub:    0
   Floating Point Double Add/Sub:   0
   Floating Point Float Mul/Div:    0
   Floating Point Double Mul/Div:   0
   0 Cycle Compare FU's:            0
   GEP Instruction FU's:            0
   Type Conversion FU's:            0
   Other:                           0

   ========= Pipeline Register Usage =============
   Total Number of Registers:       5641
   Max Register Usage Per Cycle:    137
   Avg Register Usage Per Cycle:    12.130992
   Avg Register Size (Bytes):       5.980606

   ========= Memory Configuration =================
   Cache Bus Ports:                 0
   Shared Cache Size:               0kB
   Local Bus Ports:                 0
   Private SPM Size:                256kB
   Private Read Ports:              0
   Private Write Ports:             0
   Private Read Bus Width:          64
   Private Write Bus Width:         64
       Memory Reads:                0
       Memory Writes:               0
   ========= Power Analysis ======================
   FU Leakage Power:                0.045377 mW 
   FU Dynamic Power:                0.142576 mW 
   FU Total Power:                  0.187953 mW 

   Registers Leakage Power:          0.005281 mW 
   Registers Dynamic Power:          0.015326 mW 
       Register Reads (Bits):        132616
       Register Writes (Bits):       133658
   Registers Total Power:            0.020607 mW

   SPM Leakage Power:               0.104100 mW
   SPM Read Dynamic Power:          7.187986 mW
   SPM Write Dynamic Power:         5.103456 mW
   SPM Total Power:                 12.395543 mW

   Cache Leakage Power:             0.000000 mW
   Cache Read Dynamic Power:        0.000000 mW
   Cache Write Dynamic Power:       0.000000 mW
   Cache Total Power:               0.000000 mW

   Accelerator Power:               0.208559 mW
   Accelerator Power (SPM):         12.604103 mW
   Accelerator Power (Cache):       0.208559 mW

   ========= Area Analysis =======================
   FU Area:                         5472.068359 um^2 (0.005472 mm^2)
   Register Area:                   429.271088 um^2 (0.000429 mm^2)
   SPM Area:                        2177.365505 um^2 (0.002177 mm^2)
   Cache Area:                      0.000000 um^2 (0.000000 mm^2)

   Accelerator Area:                5901.339355 um^2 (0.005901 mm^2)
   Accelerator Area (SPM):          8078.704860 um^2 (0.008079 mm^2)
   Accelerator Area (Cache):        5901.339355 um^2 (0.005901 mm^2)

   ========= SPM Resizing  =======================
   SPM Optimized Leakage Power:     0.004248 mW
   SPM Opt Area:                    178.524902 um^2

16367509375: global: Timer #0 started at tick 16367509375
16380980875: system.acctest.elem_matrix0_dma: SRC:0x0000000024020020, DST:0x0000000082048cc0, LEN:65536
16381331250: global: Timer #0 stopped at tick 16381331250. Duration: 13821875
16381347500: global: Number of accelerators running = 1
16387309875: system.acctest.elem_matrix0_dma: Transfer completed in 6.329 us
16387385000: global: Timer #0 started at tick 16387385000
16387576250: global: DAG ID = 0
16387590000: global: Node ID = 21
16387618125: global: DAG execution time = 16263
16387636250: global: DAG deadline difference = -404
16387653750: global: Node deadline difference = -404
16387666250: global: Predicted memory time / byte = 0 us/byte
16387678750: global: Predicted memory time = 0 us
16387691250: global: Predicted memory time / byte = 0 us/byte
16387703750: global: Predicted memory time = 0 us
16387716250: global: Predicted memory time / byte = 0 us/byte
16387728750: global: Predicted memory time = 0 us
16387741250: global: Predicted memory time / byte = 0 us/byte
16387753750: global: Predicted memory time = 0 us
16387766250: global: Predicted memory access size = 0
16387778750: global: Predicted memory access size = 131072
16387791250: global: Predicted memory access size = 0
16387803750: global: Predicted memory access size = 65536
16387897500: global: Timer #0 stopped at tick 16387897500. Duration: 512500
16387913750: global: Number of accelerators running = 0
16387993125: global: Number of forwards = 21
16388052500: global: Number of colocations = 0
16388071875: global: Number of DAG deadlines met = 1
16388091250: global: Number of node deadlines met = 22
16388215000: global: Total predicted compute time = 0 us
Exiting @ tick 16388296250 because m5_exit instruction encountered
