
---------- Begin Simulation Statistics ----------
final_tick                                41330425000                       # Number of ticks from beginning of simulation (restored from checkpoints and never reset)
host_inst_rate                                     75                       # Simulator instruction rate (inst/s)
host_mem_usage                                9986208                       # Number of bytes of host memory used
host_op_rate                                       79                       # Simulator op (including micro ops) rate (op/s)
host_seconds                                 25274.22                       # Real time elapsed on the host
host_tick_rate                                1612887                       # Simulator tick rate (ticks/s)
sim_freq                                 1000000000000                       # Frequency of simulated ticks
sim_insts                                     1889920                       # Number of instructions simulated
sim_ops                                       1994224                       # Number of ops (including micro ops) simulated
sim_seconds                                  0.040764                       # Number of seconds simulated
sim_ticks                                 40764477500                       # Number of ticks simulated
system.acctest.coherency_bus.snoop_filter.hit_multi_requests            0                       # Number of requests hitting in the snoop filter with multiple (>1) holders of the requested data.
system.acctest.coherency_bus.snoop_filter.hit_multi_snoops            0                       # Number of snoops hitting in the snoop filter with multiple (>1) holders of the requested data.
system.acctest.coherency_bus.snoop_filter.hit_single_requests            0                       # Number of requests hitting in the snoop filter with a single holder of the requested data.
system.acctest.coherency_bus.snoop_filter.hit_single_snoops            0                       # Number of snoops hitting in the snoop filter with a single holder of the requested data.
system.acctest.coherency_bus.snoop_filter.tot_requests            0                       # Total number of requests made to the snoop filter.
system.acctest.coherency_bus.snoop_filter.tot_snoops            0                       # Total number of snoops made to the snoop filter.
system.cf0.dma_read_bytes                           0                       # Number of bytes transfered via DMA reads (not PRD).
system.cf0.dma_read_full_pages                      0                       # Number of full page size DMA reads (not PRD).
system.cf0.dma_read_txs                             0                       # Number of DMA read transactions (not PRD).
system.cf0.dma_write_bytes                          0                       # Number of bytes transfered via DMA writes.
system.cf0.dma_write_full_pages                     0                       # Number of full page size DMA writes.
system.cf0.dma_write_txs                            0                       # Number of DMA write transactions.
system.cpu.branchPred.BTBCorrect                    0                       # Number of correct BTB predictions (this stat may not work properly.
system.cpu.branchPred.BTBHitPct             95.575489                       # BTB Hit Percentage
system.cpu.branchPred.BTBHits                  240380                       # Number of BTB hits
system.cpu.branchPred.BTBLookups               251508                       # Number of BTB lookups
system.cpu.branchPred.RASInCorrect                324                       # Number of incorrect RAS predictions.
system.cpu.branchPred.condIncorrect              4821                       # Number of conditional branches incorrect
system.cpu.branchPred.condPredicted            248985                       # Number of conditional branches predicted
system.cpu.branchPred.indirectHits               3008                       # Number of indirect target hits.
system.cpu.branchPred.indirectLookups            4296                       # Number of indirect predictor lookups.
system.cpu.branchPred.indirectMisses             1288                       # Number of indirect misses.
system.cpu.branchPred.lookups                  272805                       # Number of BP lookups
system.cpu.branchPred.usedRAS                    8010                       # Number of times the RAS was used to get a target.
system.cpu.branchPredindirectMispredicted         1109                       # Number of mispredicted indirect branches.
system.cpu.committedInsts                     1587611                       # Number of instructions committed
system.cpu.committedOps                       1621102                       # Number of ops (including micro ops) committed
system.cpu.cpi                               3.471573                       # CPI: cycles per instruction
system.cpu.discardedOps                         14337                       # Number of ops (including micro ops) which were discarded before commit
system.cpu.dtb.accesses                             0                       # DTB accesses
system.cpu.dtb.align_faults                         0                       # Number of TLB faults due to alignment restrictions
system.cpu.dtb.domain_faults                        0                       # Number of TLB faults due to domain restrictions
system.cpu.dtb.flush_entries                        0                       # Number of entries that have been flushed from TLB
system.cpu.dtb.flush_tlb                            0                       # Number of times complete TLB was flushed
system.cpu.dtb.flush_tlb_asid                       0                       # Number of times TLB was flushed by ASID
system.cpu.dtb.flush_tlb_mva                        0                       # Number of times TLB was flushed by MVA
system.cpu.dtb.flush_tlb_mva_asid                   0                       # Number of times TLB was flushed by MVA & ASID
system.cpu.dtb.hits                                 0                       # DTB hits
system.cpu.dtb.inst_accesses                        0                       # ITB inst accesses
system.cpu.dtb.inst_hits                            0                       # ITB inst hits
system.cpu.dtb.inst_misses                          0                       # ITB inst misses
system.cpu.dtb.misses                               0                       # DTB misses
system.cpu.dtb.perms_faults                         0                       # Number of TLB faults due to permissions restrictions
system.cpu.dtb.prefetch_faults                      0                       # Number of TLB faults due to prefetch
system.cpu.dtb.read_accesses                        0                       # DTB read accesses
system.cpu.dtb.read_hits                            0                       # DTB read hits
system.cpu.dtb.read_misses                          0                       # DTB read misses
system.cpu.dtb.stage2_mmu.stage2_tlb.accesses            0                       # DTB accesses
system.cpu.dtb.stage2_mmu.stage2_tlb.align_faults            0                       # Number of TLB faults due to alignment restrictions
system.cpu.dtb.stage2_mmu.stage2_tlb.domain_faults            0                       # Number of TLB faults due to domain restrictions
system.cpu.dtb.stage2_mmu.stage2_tlb.flush_entries            0                       # Number of entries that have been flushed from TLB
system.cpu.dtb.stage2_mmu.stage2_tlb.flush_tlb            0                       # Number of times complete TLB was flushed
system.cpu.dtb.stage2_mmu.stage2_tlb.flush_tlb_asid            0                       # Number of times TLB was flushed by ASID
system.cpu.dtb.stage2_mmu.stage2_tlb.flush_tlb_mva            0                       # Number of times TLB was flushed by MVA
system.cpu.dtb.stage2_mmu.stage2_tlb.flush_tlb_mva_asid            0                       # Number of times TLB was flushed by MVA & ASID
system.cpu.dtb.stage2_mmu.stage2_tlb.hits            0                       # DTB hits
system.cpu.dtb.stage2_mmu.stage2_tlb.inst_accesses            0                       # ITB inst accesses
system.cpu.dtb.stage2_mmu.stage2_tlb.inst_hits            0                       # ITB inst hits
system.cpu.dtb.stage2_mmu.stage2_tlb.inst_misses            0                       # ITB inst misses
system.cpu.dtb.stage2_mmu.stage2_tlb.misses            0                       # DTB misses
system.cpu.dtb.stage2_mmu.stage2_tlb.perms_faults            0                       # Number of TLB faults due to permissions restrictions
system.cpu.dtb.stage2_mmu.stage2_tlb.prefetch_faults            0                       # Number of TLB faults due to prefetch
system.cpu.dtb.stage2_mmu.stage2_tlb.read_accesses            0                       # DTB read accesses
system.cpu.dtb.stage2_mmu.stage2_tlb.read_hits            0                       # DTB read hits
system.cpu.dtb.stage2_mmu.stage2_tlb.read_misses            0                       # DTB read misses
system.cpu.dtb.stage2_mmu.stage2_tlb.walker.walkRequestOrigin_Requested::Data            0                       # Table walker requests started/completed, data/inst
system.cpu.dtb.stage2_mmu.stage2_tlb.walker.walkRequestOrigin_Requested::Inst            0                       # Table walker requests started/completed, data/inst
system.cpu.dtb.stage2_mmu.stage2_tlb.walker.walkRequestOrigin_Requested::total            0                       # Table walker requests started/completed, data/inst
system.cpu.dtb.stage2_mmu.stage2_tlb.walker.walkRequestOrigin_Completed::Data            0                       # Table walker requests started/completed, data/inst
system.cpu.dtb.stage2_mmu.stage2_tlb.walker.walkRequestOrigin_Completed::Inst            0                       # Table walker requests started/completed, data/inst
system.cpu.dtb.stage2_mmu.stage2_tlb.walker.walkRequestOrigin_Completed::total            0                       # Table walker requests started/completed, data/inst
system.cpu.dtb.stage2_mmu.stage2_tlb.walker.walkRequestOrigin::total            0                       # Table walker requests started/completed, data/inst
system.cpu.dtb.stage2_mmu.stage2_tlb.walker.walks            0                       # Table walker walks requested
system.cpu.dtb.stage2_mmu.stage2_tlb.write_accesses            0                       # DTB write accesses
system.cpu.dtb.stage2_mmu.stage2_tlb.write_hits            0                       # DTB write hits
system.cpu.dtb.stage2_mmu.stage2_tlb.write_misses            0                       # DTB write misses
system.cpu.dtb.walker.walkRequestOrigin_Requested::Data            0                       # Table walker requests started/completed, data/inst
system.cpu.dtb.walker.walkRequestOrigin_Requested::Inst            0                       # Table walker requests started/completed, data/inst
system.cpu.dtb.walker.walkRequestOrigin_Requested::total            0                       # Table walker requests started/completed, data/inst
system.cpu.dtb.walker.walkRequestOrigin_Completed::Data            0                       # Table walker requests started/completed, data/inst
system.cpu.dtb.walker.walkRequestOrigin_Completed::Inst            0                       # Table walker requests started/completed, data/inst
system.cpu.dtb.walker.walkRequestOrigin_Completed::total            0                       # Table walker requests started/completed, data/inst
system.cpu.dtb.walker.walkRequestOrigin::total            0                       # Table walker requests started/completed, data/inst
system.cpu.dtb.walker.walks                         0                       # Table walker walks requested
system.cpu.dtb.write_accesses                       0                       # DTB write accesses
system.cpu.dtb.write_hits                           0                       # DTB write hits
system.cpu.dtb.write_misses                         0                       # DTB write misses
system.cpu.fetch2.amo_instructions                  0                       # Number of memory atomic instructions successfully decoded
system.cpu.fetch2.fp_instructions                   0                       # Number of floating point instructions successfully decoded
system.cpu.fetch2.int_instructions             824159                       # Number of integer instructions successfully decoded
system.cpu.fetch2.load_instructions             96673                       # Number of memory load instructions successfully decoded
system.cpu.fetch2.store_instructions           473583                       # Number of memory store instructions successfully decoded
system.cpu.fetch2.vec_instructions                  0                       # Number of SIMD instructions successfully decoded
system.cpu.idleCycles                         1927864                       # Total number of cycles that the object has spent stopped
system.cpu.ipc                               0.288054                       # IPC: instructions per cycle
system.cpu.itb.accesses                             0                       # DTB accesses
system.cpu.itb.align_faults                         0                       # Number of TLB faults due to alignment restrictions
system.cpu.itb.domain_faults                        0                       # Number of TLB faults due to domain restrictions
system.cpu.itb.flush_entries                        0                       # Number of entries that have been flushed from TLB
system.cpu.itb.flush_tlb                            0                       # Number of times complete TLB was flushed
system.cpu.itb.flush_tlb_asid                       0                       # Number of times TLB was flushed by ASID
system.cpu.itb.flush_tlb_mva                        0                       # Number of times TLB was flushed by MVA
system.cpu.itb.flush_tlb_mva_asid                   0                       # Number of times TLB was flushed by MVA & ASID
system.cpu.itb.hits                                 0                       # DTB hits
system.cpu.itb.inst_accesses                        0                       # ITB inst accesses
system.cpu.itb.inst_hits                            0                       # ITB inst hits
system.cpu.itb.inst_misses                          0                       # ITB inst misses
system.cpu.itb.misses                               0                       # DTB misses
system.cpu.itb.perms_faults                         0                       # Number of TLB faults due to permissions restrictions
system.cpu.itb.prefetch_faults                      0                       # Number of TLB faults due to prefetch
system.cpu.itb.read_accesses                        0                       # DTB read accesses
system.cpu.itb.read_hits                            0                       # DTB read hits
system.cpu.itb.read_misses                          0                       # DTB read misses
system.cpu.itb.stage2_mmu.stage2_tlb.accesses            0                       # DTB accesses
system.cpu.itb.stage2_mmu.stage2_tlb.align_faults            0                       # Number of TLB faults due to alignment restrictions
system.cpu.itb.stage2_mmu.stage2_tlb.domain_faults            0                       # Number of TLB faults due to domain restrictions
system.cpu.itb.stage2_mmu.stage2_tlb.flush_entries            0                       # Number of entries that have been flushed from TLB
system.cpu.itb.stage2_mmu.stage2_tlb.flush_tlb            0                       # Number of times complete TLB was flushed
system.cpu.itb.stage2_mmu.stage2_tlb.flush_tlb_asid            0                       # Number of times TLB was flushed by ASID
system.cpu.itb.stage2_mmu.stage2_tlb.flush_tlb_mva            0                       # Number of times TLB was flushed by MVA
system.cpu.itb.stage2_mmu.stage2_tlb.flush_tlb_mva_asid            0                       # Number of times TLB was flushed by MVA & ASID
system.cpu.itb.stage2_mmu.stage2_tlb.hits            0                       # DTB hits
system.cpu.itb.stage2_mmu.stage2_tlb.inst_accesses            0                       # ITB inst accesses
system.cpu.itb.stage2_mmu.stage2_tlb.inst_hits            0                       # ITB inst hits
system.cpu.itb.stage2_mmu.stage2_tlb.inst_misses            0                       # ITB inst misses
system.cpu.itb.stage2_mmu.stage2_tlb.misses            0                       # DTB misses
system.cpu.itb.stage2_mmu.stage2_tlb.perms_faults            0                       # Number of TLB faults due to permissions restrictions
system.cpu.itb.stage2_mmu.stage2_tlb.prefetch_faults            0                       # Number of TLB faults due to prefetch
system.cpu.itb.stage2_mmu.stage2_tlb.read_accesses            0                       # DTB read accesses
system.cpu.itb.stage2_mmu.stage2_tlb.read_hits            0                       # DTB read hits
system.cpu.itb.stage2_mmu.stage2_tlb.read_misses            0                       # DTB read misses
system.cpu.itb.stage2_mmu.stage2_tlb.walker.walkRequestOrigin_Requested::Data            0                       # Table walker requests started/completed, data/inst
system.cpu.itb.stage2_mmu.stage2_tlb.walker.walkRequestOrigin_Requested::Inst            0                       # Table walker requests started/completed, data/inst
system.cpu.itb.stage2_mmu.stage2_tlb.walker.walkRequestOrigin_Requested::total            0                       # Table walker requests started/completed, data/inst
system.cpu.itb.stage2_mmu.stage2_tlb.walker.walkRequestOrigin_Completed::Data            0                       # Table walker requests started/completed, data/inst
system.cpu.itb.stage2_mmu.stage2_tlb.walker.walkRequestOrigin_Completed::Inst            0                       # Table walker requests started/completed, data/inst
system.cpu.itb.stage2_mmu.stage2_tlb.walker.walkRequestOrigin_Completed::total            0                       # Table walker requests started/completed, data/inst
system.cpu.itb.stage2_mmu.stage2_tlb.walker.walkRequestOrigin::total            0                       # Table walker requests started/completed, data/inst
system.cpu.itb.stage2_mmu.stage2_tlb.walker.walks            0                       # Table walker walks requested
system.cpu.itb.stage2_mmu.stage2_tlb.write_accesses            0                       # DTB write accesses
system.cpu.itb.stage2_mmu.stage2_tlb.write_hits            0                       # DTB write hits
system.cpu.itb.stage2_mmu.stage2_tlb.write_misses            0                       # DTB write misses
system.cpu.itb.walker.walkRequestOrigin_Requested::Data            0                       # Table walker requests started/completed, data/inst
system.cpu.itb.walker.walkRequestOrigin_Requested::Inst            0                       # Table walker requests started/completed, data/inst
system.cpu.itb.walker.walkRequestOrigin_Requested::total            0                       # Table walker requests started/completed, data/inst
system.cpu.itb.walker.walkRequestOrigin_Completed::Data            0                       # Table walker requests started/completed, data/inst
system.cpu.itb.walker.walkRequestOrigin_Completed::Inst            0                       # Table walker requests started/completed, data/inst
system.cpu.itb.walker.walkRequestOrigin_Completed::total            0                       # Table walker requests started/completed, data/inst
system.cpu.itb.walker.walkRequestOrigin::total            0                       # Table walker requests started/completed, data/inst
system.cpu.itb.walker.walks                         0                       # Table walker walks requested
system.cpu.itb.write_accesses                       0                       # DTB write accesses
system.cpu.itb.write_hits                           0                       # DTB write hits
system.cpu.itb.write_misses                         0                       # DTB write misses
system.cpu.kern.inst.arm                            0                       # number of arm instructions executed
system.cpu.kern.inst.quiesce                      295                       # number of quiesce instructions executed
system.cpu.numCycles                          5511507                       # number of cpu cycles simulated
system.cpu.numFetchSuspends                       295                       # Number of times Execute suspended instruction fetching
system.cpu.numWorkItemsCompleted                    0                       # number of work items this cpu completed
system.cpu.numWorkItemsStarted                      0                       # number of work items this cpu started
system.cpu.op_class_0::No_OpClass                   0      0.00%      0.00% # Class of committed instruction
system.cpu.op_class_0::IntAlu                 1042266     64.29%     64.29% # Class of committed instruction
system.cpu.op_class_0::IntMult                   1820      0.11%     64.41% # Class of committed instruction
system.cpu.op_class_0::IntDiv                       0      0.00%     64.41% # Class of committed instruction
system.cpu.op_class_0::FloatAdd                     0      0.00%     64.41% # Class of committed instruction
system.cpu.op_class_0::FloatCmp                     0      0.00%     64.41% # Class of committed instruction
system.cpu.op_class_0::FloatCvt                     0      0.00%     64.41% # Class of committed instruction
system.cpu.op_class_0::FloatMult                    0      0.00%     64.41% # Class of committed instruction
system.cpu.op_class_0::FloatMultAcc                 0      0.00%     64.41% # Class of committed instruction
system.cpu.op_class_0::FloatDiv                     0      0.00%     64.41% # Class of committed instruction
system.cpu.op_class_0::FloatMisc                    0      0.00%     64.41% # Class of committed instruction
system.cpu.op_class_0::FloatSqrt                    0      0.00%     64.41% # Class of committed instruction
system.cpu.op_class_0::SimdAdd                      0      0.00%     64.41% # Class of committed instruction
system.cpu.op_class_0::SimdAddAcc                   0      0.00%     64.41% # Class of committed instruction
system.cpu.op_class_0::SimdAlu                      0      0.00%     64.41% # Class of committed instruction
system.cpu.op_class_0::SimdCmp                      0      0.00%     64.41% # Class of committed instruction
system.cpu.op_class_0::SimdCvt                      0      0.00%     64.41% # Class of committed instruction
system.cpu.op_class_0::SimdMisc                     0      0.00%     64.41% # Class of committed instruction
system.cpu.op_class_0::SimdMult                     0      0.00%     64.41% # Class of committed instruction
system.cpu.op_class_0::SimdMultAcc                  0      0.00%     64.41% # Class of committed instruction
system.cpu.op_class_0::SimdShift                    0      0.00%     64.41% # Class of committed instruction
system.cpu.op_class_0::SimdShiftAcc                 0      0.00%     64.41% # Class of committed instruction
system.cpu.op_class_0::SimdDiv                      0      0.00%     64.41% # Class of committed instruction
system.cpu.op_class_0::SimdSqrt                     0      0.00%     64.41% # Class of committed instruction
system.cpu.op_class_0::SimdFloatAdd                 0      0.00%     64.41% # Class of committed instruction
system.cpu.op_class_0::SimdFloatAlu                 0      0.00%     64.41% # Class of committed instruction
system.cpu.op_class_0::SimdFloatCmp                 0      0.00%     64.41% # Class of committed instruction
system.cpu.op_class_0::SimdFloatCvt                 0      0.00%     64.41% # Class of committed instruction
system.cpu.op_class_0::SimdFloatDiv                 0      0.00%     64.41% # Class of committed instruction
system.cpu.op_class_0::SimdFloatMisc                0      0.00%     64.41% # Class of committed instruction
system.cpu.op_class_0::SimdFloatMult                0      0.00%     64.41% # Class of committed instruction
system.cpu.op_class_0::SimdFloatMultAcc             0      0.00%     64.41% # Class of committed instruction
system.cpu.op_class_0::SimdFloatSqrt                0      0.00%     64.41% # Class of committed instruction
system.cpu.op_class_0::SimdReduceAdd                0      0.00%     64.41% # Class of committed instruction
system.cpu.op_class_0::SimdReduceAlu                0      0.00%     64.41% # Class of committed instruction
system.cpu.op_class_0::SimdReduceCmp                0      0.00%     64.41% # Class of committed instruction
system.cpu.op_class_0::SimdFloatReduceAdd            0      0.00%     64.41% # Class of committed instruction
system.cpu.op_class_0::SimdFloatReduceCmp            0      0.00%     64.41% # Class of committed instruction
system.cpu.op_class_0::SimdAes                      0      0.00%     64.41% # Class of committed instruction
system.cpu.op_class_0::SimdAesMix                   0      0.00%     64.41% # Class of committed instruction
system.cpu.op_class_0::SimdSha1Hash                 0      0.00%     64.41% # Class of committed instruction
system.cpu.op_class_0::SimdSha1Hash2                0      0.00%     64.41% # Class of committed instruction
system.cpu.op_class_0::SimdSha256Hash               0      0.00%     64.41% # Class of committed instruction
system.cpu.op_class_0::SimdSha256Hash2              0      0.00%     64.41% # Class of committed instruction
system.cpu.op_class_0::SimdShaSigma2                0      0.00%     64.41% # Class of committed instruction
system.cpu.op_class_0::SimdShaSigma3                0      0.00%     64.41% # Class of committed instruction
system.cpu.op_class_0::SimdPredAlu                  0      0.00%     64.41% # Class of committed instruction
system.cpu.op_class_0::MemRead                  91240      5.63%     70.03% # Class of committed instruction
system.cpu.op_class_0::MemWrite                485776     29.97%    100.00% # Class of committed instruction
system.cpu.op_class_0::FloatMemRead                 0      0.00%    100.00% # Class of committed instruction
system.cpu.op_class_0::FloatMemWrite                0      0.00%    100.00% # Class of committed instruction
system.cpu.op_class_0::IprAccess                    0      0.00%    100.00% # Class of committed instruction
system.cpu.op_class_0::InstPrefetch                 0      0.00%    100.00% # Class of committed instruction
system.cpu.op_class_0::total                  1621102                       # Class of committed instruction
system.cpu.quiesceCycles                     59698073                       # Total number of cycles that CPU has spent quiesced or waiting for an interrupt
system.cpu.tickCycles                         3583643                       # Number of cycles that the object actually ticked
system.membus.snoop_filter.hit_multi_requests           14                       # Number of requests hitting in the snoop filter with multiple (>1) holders of the requested data.
system.membus.snoop_filter.hit_multi_snoops            0                       # Number of snoops hitting in the snoop filter with multiple (>1) holders of the requested data.
system.membus.snoop_filter.hit_single_requests          839                       # Number of requests hitting in the snoop filter with a single holder of the requested data.
system.membus.snoop_filter.hit_single_snoops            0                       # Number of snoops hitting in the snoop filter with a single holder of the requested data.
system.membus.snoop_filter.tot_requests        423109                       # Total number of requests made to the snoop filter.
system.membus.snoop_filter.tot_snoops               0                       # Total number of snoops made to the snoop filter.
system.bridge.pwrStateResidencyTicks::UNDEFINED  41330425000                       # Cumulative time (in ticks) in various power states
system.voltage_domain.voltage                       1                       # Voltage in Volts
system.iocache.pwrStateResidencyTicks::UNDEFINED  41330425000                       # Cumulative time (in ticks) in various power states
system.iocache.blocked_cycles::no_mshrs             0                       # number of cycles access was blocked
system.iocache.blocked_cycles::no_targets            0                       # number of cycles access was blocked
system.iocache.blocked::no_mshrs                    0                       # number of cycles access was blocked
system.iocache.blocked::no_targets                  0                       # number of cycles access was blocked
system.iocache.avg_blocked_cycles::no_mshrs          nan                       # average number of cycles each access was blocked
system.iocache.avg_blocked_cycles::no_targets          nan                       # average number of cycles each access was blocked
system.iocache.replacements                         0                       # number of replacements
system.iocache.tags.pwrStateResidencyTicks::UNDEFINED  41330425000                       # Cumulative time (in ticks) in various power states
system.iocache.tags.tagsinuse                       0                       # Cycle average of tags in use
system.iocache.tags.total_refs                      0                       # Total number of references to valid blocks.
system.iocache.tags.sampled_refs                    0                       # Sample count of references to valid blocks.
system.iocache.tags.avg_refs                      nan                       # Average number of references to valid blocks.
system.iocache.tags.warmup_cycle                    0                       # Cycle when the warmup percentage was hit.
system.iocache.tags.tag_accesses                    0                       # Number of tag accesses
system.iocache.tags.data_accesses                   0                       # Number of data accesses
system.membus.pwrStateResidencyTicks::UNDEFINED  41330425000                       # Cumulative time (in ticks) in various power states
system.membus.trans_dist::ReadReq              123333                       # Transaction distribution
system.membus.trans_dist::ReadResp             124055                       # Transaction distribution
system.membus.trans_dist::WriteReq              92434                       # Transaction distribution
system.membus.trans_dist::WriteResp             92434                       # Transaction distribution
system.membus.trans_dist::WritebackDirty          451                       # Transaction distribution
system.membus.trans_dist::WriteClean               15                       # Transaction distribution
system.membus.trans_dist::CleanEvict              364                       # Transaction distribution
system.membus.trans_dist::ReadExReq               272                       # Transaction distribution
system.membus.trans_dist::ReadExResp              272                       # Transaction distribution
system.membus.trans_dist::ReadCleanReq            241                       # Transaction distribution
system.membus.trans_dist::ReadSharedReq           484                       # Transaction distribution
system.membus.trans_dist::CleanInvalidReq       210647                       # Transaction distribution
system.membus.trans_dist::InvalidateReq        210647                       # Transaction distribution
system.membus.pkt_count_system.cpu.icache.mem_side::system.realview.bootmem.port          552                       # Packet count per connected master and slave (bytes)
system.membus.pkt_count_system.cpu.icache.mem_side::total          552                       # Packet count per connected master and slave (bytes)
system.membus.pkt_count_system.cpu.dcache.mem_side::system.realview.bootmem.port           62                       # Packet count per connected master and slave (bytes)
system.membus.pkt_count_system.cpu.dcache.mem_side::system.realview.gic.pio         2120                       # Packet count per connected master and slave (bytes)
system.membus.pkt_count_system.cpu.dcache.mem_side::system.mem_ctrls.port       423504                       # Packet count per connected master and slave (bytes)
system.membus.pkt_count_system.cpu.dcache.mem_side::system.acctest.mem2cls.slave         8192                       # Packet count per connected master and slave (bytes)
system.membus.pkt_count_system.cpu.dcache.mem_side::total       433878                       # Packet count per connected master and slave (bytes)
system.membus.pkt_count_system.acctest.coherency_bus.master[0]::system.mem_ctrls.port       421219                       # Packet count per connected master and slave (bytes)
system.membus.pkt_count_system.acctest.coherency_bus.master[0]::total       421219                       # Packet count per connected master and slave (bytes)
system.membus.pkt_count::total                 855649                       # Packet count per connected master and slave (bytes)
system.membus.pkt_size_system.cpu.icache.mem_side::system.realview.bootmem.port        15424                       # Cumulative packet size per connected master and slave (bytes)
system.membus.pkt_size_system.cpu.icache.mem_side::total        15424                       # Cumulative packet size per connected master and slave (bytes)
system.membus.pkt_size_system.cpu.dcache.mem_side::system.realview.bootmem.port         1536                       # Cumulative packet size per connected master and slave (bytes)
system.membus.pkt_size_system.cpu.dcache.mem_side::system.realview.gic.pio         4240                       # Cumulative packet size per connected master and slave (bytes)
system.membus.pkt_size_system.cpu.dcache.mem_side::system.mem_ctrls.port        76672                       # Cumulative packet size per connected master and slave (bytes)
system.membus.pkt_size_system.cpu.dcache.mem_side::system.acctest.mem2cls.slave        11869                       # Cumulative packet size per connected master and slave (bytes)
system.membus.pkt_size_system.cpu.dcache.mem_side::total        94317                       # Cumulative packet size per connected master and slave (bytes)
system.membus.pkt_size_system.acctest.coherency_bus.master[0]::system.mem_ctrls.port     13476424                       # Cumulative packet size per connected master and slave (bytes)
system.membus.pkt_size_system.acctest.coherency_bus.master[0]::total     13476424                       # Cumulative packet size per connected master and slave (bytes)
system.membus.pkt_size::total                13586165                       # Cumulative packet size per connected master and slave (bytes)
system.membus.snoops                                0                       # Total snoops (count)
system.membus.snoopTraffic                          0                       # Total snoop traffic (bytes)
system.membus.snoop_fanout::samples            638196                       # Request fanout histogram
system.membus.snoop_fanout::mean             0.000036                       # Request fanout histogram
system.membus.snoop_fanout::stdev            0.006003                       # Request fanout histogram
system.membus.snoop_fanout::underflows              0      0.00%      0.00% # Request fanout histogram
system.membus.snoop_fanout::0                  638173    100.00%    100.00% # Request fanout histogram
system.membus.snoop_fanout::1                      23      0.00%    100.00% # Request fanout histogram
system.membus.snoop_fanout::2                       0      0.00%    100.00% # Request fanout histogram
system.membus.snoop_fanout::3                       0      0.00%    100.00% # Request fanout histogram
system.membus.snoop_fanout::4                       0      0.00%    100.00% # Request fanout histogram
system.membus.snoop_fanout::overflows               0      0.00%    100.00% # Request fanout histogram
system.membus.snoop_fanout::min_value               0                       # Request fanout histogram
system.membus.snoop_fanout::max_value               1                       # Request fanout histogram
system.membus.snoop_fanout::total              638196                       # Request fanout histogram
system.membus.reqLayer6.occupancy          1124815350                       # Layer occupancy (ticks)
system.membus.reqLayer6.utilization               2.8                       # Layer utilization (%)
system.membus.reqLayer7.occupancy            10374125                       # Layer occupancy (ticks)
system.membus.reqLayer7.utilization               0.0                       # Layer utilization (%)
system.membus.reqLayer1.occupancy              522609                       # Layer occupancy (ticks)
system.membus.reqLayer1.utilization               0.0                       # Layer utilization (%)
system.membus.reqLayer2.occupancy             2094000                       # Layer occupancy (ticks)
system.membus.reqLayer2.utilization               0.0                       # Layer utilization (%)
system.membus.badaddr_responder.pwrStateResidencyTicks::UNDEFINED  41330425000                       # Cumulative time (in ticks) in various power states
system.membus.respLayer4.occupancy            9942950                       # Layer occupancy (ticks)
system.membus.respLayer4.utilization              0.0                       # Layer utilization (%)
system.membus.respLayer7.occupancy          782752371                       # Layer occupancy (ticks)
system.membus.respLayer7.utilization              1.9                       # Layer utilization (%)
system.membus.respLayer3.occupancy            1211000                       # Layer occupancy (ticks)
system.membus.respLayer3.utilization              0.0                       # Layer utilization (%)
system.acctest.harris_non_max0_spm.pwrStateResidencyTicks::UNDEFINED  41330425000                       # Cumulative time (in ticks) in various power states
system.acctest.elem_matrix2_spm.pwrStateResidencyTicks::UNDEFINED  41330425000                       # Cumulative time (in ticks) in various power states
system.acctest.elem_matrix2_spm.bytes_read::.acctest.elem_matrix2.system.acctest.elem_matrix2       917504                       # Number of bytes read from this memory
system.acctest.elem_matrix2_spm.bytes_read::.acctest.elem_matrix2_dma       458752                       # Number of bytes read from this memory
system.acctest.elem_matrix2_spm.bytes_read::total      1376256                       # Number of bytes read from this memory
system.acctest.elem_matrix2_spm.bytes_written::.acctest.elem_matrix2.system.acctest.elem_matrix2       458752                       # Number of bytes written to this memory
system.acctest.elem_matrix2_spm.bytes_written::.acctest.elem_matrix2_dma       917504                       # Number of bytes written to this memory
system.acctest.elem_matrix2_spm.bytes_written::total      1376256                       # Number of bytes written to this memory
system.acctest.elem_matrix2_spm.num_reads::.acctest.elem_matrix2.system.acctest.elem_matrix2       229376                       # Number of read requests responded to by this memory
system.acctest.elem_matrix2_spm.num_reads::.acctest.elem_matrix2_dma        14336                       # Number of read requests responded to by this memory
system.acctest.elem_matrix2_spm.num_reads::total       243712                       # Number of read requests responded to by this memory
system.acctest.elem_matrix2_spm.num_writes::.acctest.elem_matrix2.system.acctest.elem_matrix2       114688                       # Number of write requests responded to by this memory
system.acctest.elem_matrix2_spm.num_writes::.acctest.elem_matrix2_dma        28672                       # Number of write requests responded to by this memory
system.acctest.elem_matrix2_spm.num_writes::total       143360                       # Number of write requests responded to by this memory
system.acctest.elem_matrix2_spm.bw_read::.acctest.elem_matrix2.system.acctest.elem_matrix2     22507439                       # Total read bandwidth from this memory (bytes/s)
system.acctest.elem_matrix2_spm.bw_read::.acctest.elem_matrix2_dma     11253720                       # Total read bandwidth from this memory (bytes/s)
system.acctest.elem_matrix2_spm.bw_read::total     33761159                       # Total read bandwidth from this memory (bytes/s)
system.acctest.elem_matrix2_spm.bw_write::.acctest.elem_matrix2.system.acctest.elem_matrix2     11253720                       # Write bandwidth from this memory (bytes/s)
system.acctest.elem_matrix2_spm.bw_write::.acctest.elem_matrix2_dma     22507439                       # Write bandwidth from this memory (bytes/s)
system.acctest.elem_matrix2_spm.bw_write::total     33761159                       # Write bandwidth from this memory (bytes/s)
system.acctest.elem_matrix2_spm.bw_total::.acctest.elem_matrix2.system.acctest.elem_matrix2     33761159                       # Total bandwidth to/from this memory (bytes/s)
system.acctest.elem_matrix2_spm.bw_total::.acctest.elem_matrix2_dma     33761159                       # Total bandwidth to/from this memory (bytes/s)
system.acctest.elem_matrix2_spm.bw_total::total     67522318                       # Total bandwidth to/from this memory (bytes/s)
system.acctest.elem_matrix3_spm.pwrStateResidencyTicks::UNDEFINED  41330425000                       # Cumulative time (in ticks) in various power states
system.acctest.local_bus.pwrStateResidencyTicks::UNDEFINED  41330425000                       # Cumulative time (in ticks) in various power states
system.acctest.local_bus.trans_dist::ReadReq       349644                       # Transaction distribution
system.acctest.local_bus.trans_dist::ReadResp       349644                       # Transaction distribution
system.acctest.local_bus.trans_dist::WriteReq       423611                       # Transaction distribution
system.acctest.local_bus.trans_dist::WriteResp       423610                       # Transaction distribution
system.acctest.local_bus.pkt_count_system.acctest.mem2cls.master::system.acctest.canny_non_max0.pio           48                       # Packet count per connected master and slave (bytes)
system.acctest.local_bus.pkt_count_system.acctest.mem2cls.master::system.acctest.canny_non_max0_dma.pio          112                       # Packet count per connected master and slave (bytes)
system.acctest.local_bus.pkt_count_system.acctest.mem2cls.master::system.acctest.convolution0.pio          600                       # Packet count per connected master and slave (bytes)
system.acctest.local_bus.pkt_count_system.acctest.mem2cls.master::system.acctest.convolution0_dma.pio          964                       # Packet count per connected master and slave (bytes)
system.acctest.local_bus.pkt_count_system.acctest.mem2cls.master::system.acctest.convolution1.pio          616                       # Packet count per connected master and slave (bytes)
system.acctest.local_bus.pkt_count_system.acctest.mem2cls.master::system.acctest.convolution1_dma.pio          952                       # Packet count per connected master and slave (bytes)
system.acctest.local_bus.pkt_count_system.acctest.mem2cls.master::system.acctest.edge_tracking0.pio           64                       # Packet count per connected master and slave (bytes)
system.acctest.local_bus.pkt_count_system.acctest.mem2cls.master::system.acctest.edge_tracking0_dma.pio          112                       # Packet count per connected master and slave (bytes)
system.acctest.local_bus.pkt_count_system.acctest.mem2cls.master::system.acctest.elem_matrix0.pio          800                       # Packet count per connected master and slave (bytes)
system.acctest.local_bus.pkt_count_system.acctest.mem2cls.master::system.acctest.elem_matrix0_dma.pio         1342                       # Packet count per connected master and slave (bytes)
system.acctest.local_bus.pkt_count_system.acctest.mem2cls.master::system.acctest.elem_matrix1.pio          500                       # Packet count per connected master and slave (bytes)
system.acctest.local_bus.pkt_count_system.acctest.mem2cls.master::system.acctest.elem_matrix1_dma.pio          866                       # Packet count per connected master and slave (bytes)
system.acctest.local_bus.pkt_count_system.acctest.mem2cls.master::system.acctest.elem_matrix2.pio          140                       # Packet count per connected master and slave (bytes)
system.acctest.local_bus.pkt_count_system.acctest.mem2cls.master::system.acctest.elem_matrix2_dma.pio          294                       # Packet count per connected master and slave (bytes)
system.acctest.local_bus.pkt_count_system.acctest.mem2cls.master::system.acctest.grayscale0.pio          120                       # Packet count per connected master and slave (bytes)
system.acctest.local_bus.pkt_count_system.acctest.mem2cls.master::system.acctest.grayscale0_dma.pio          336                       # Packet count per connected master and slave (bytes)
system.acctest.local_bus.pkt_count_system.acctest.mem2cls.master::system.acctest.isp0.pio          144                       # Packet count per connected master and slave (bytes)
system.acctest.local_bus.pkt_count_system.acctest.mem2cls.master::system.acctest.isp0_dma.pio          182                       # Packet count per connected master and slave (bytes)
system.acctest.local_bus.pkt_count_system.acctest.mem2cls.master::total         8192                       # Packet count per connected master and slave (bytes)
system.acctest.local_bus.pkt_count_system.acctest.canny_non_max0_dma.dma::system.acctest.canny_non_max0_spm.port        32768                       # Packet count per connected master and slave (bytes)
system.acctest.local_bus.pkt_count_system.acctest.canny_non_max0_dma.dma::system.acctest.elem_matrix0_spm.port        16384                       # Packet count per connected master and slave (bytes)
system.acctest.local_bus.pkt_count_system.acctest.canny_non_max0_dma.dma::total        49152                       # Packet count per connected master and slave (bytes)
system.acctest.local_bus.pkt_count_system.acctest.convolution0_dma.dma::system.acctest.convolution0_spm.port       159715                       # Packet count per connected master and slave (bytes)
system.acctest.local_bus.pkt_count_system.acctest.convolution0_dma.dma::system.acctest.grayscale0_spm.port         4096                       # Packet count per connected master and slave (bytes)
system.acctest.local_bus.pkt_count_system.acctest.convolution0_dma.dma::total       163811                       # Packet count per connected master and slave (bytes)
system.acctest.local_bus.pkt_count_system.acctest.convolution1_dma.dma::system.acctest.convolution1_spm.port       151768                       # Packet count per connected master and slave (bytes)
system.acctest.local_bus.pkt_count_system.acctest.convolution1_dma.dma::system.acctest.grayscale0_spm.port         4096                       # Packet count per connected master and slave (bytes)
system.acctest.local_bus.pkt_count_system.acctest.convolution1_dma.dma::total       155864                       # Packet count per connected master and slave (bytes)
system.acctest.local_bus.pkt_count_system.acctest.edge_tracking0_dma.dma::system.acctest.canny_non_max0_spm.port        16384                       # Packet count per connected master and slave (bytes)
system.acctest.local_bus.pkt_count_system.acctest.edge_tracking0_dma.dma::system.acctest.edge_tracking0_spm.port        20480                       # Packet count per connected master and slave (bytes)
system.acctest.local_bus.pkt_count_system.acctest.edge_tracking0_dma.dma::total        36864                       # Packet count per connected master and slave (bytes)
system.acctest.local_bus.pkt_count_system.acctest.elem_matrix0_dma.dma::system.acctest.convolution0_spm.port        90112                       # Packet count per connected master and slave (bytes)
system.acctest.local_bus.pkt_count_system.acctest.elem_matrix0_dma.dma::system.acctest.convolution1_spm.port        42584                       # Packet count per connected master and slave (bytes)
system.acctest.local_bus.pkt_count_system.acctest.elem_matrix0_dma.dma::system.acctest.elem_matrix0_spm.port       386590                       # Packet count per connected master and slave (bytes)
system.acctest.local_bus.pkt_count_system.acctest.elem_matrix0_dma.dma::system.acctest.elem_matrix1_spm.port        16384                       # Packet count per connected master and slave (bytes)
system.acctest.local_bus.pkt_count_system.acctest.elem_matrix0_dma.dma::total       535670                       # Packet count per connected master and slave (bytes)
system.acctest.local_bus.pkt_count_system.acctest.elem_matrix1_dma.dma::system.acctest.convolution0_spm.port        24576                       # Packet count per connected master and slave (bytes)
system.acctest.local_bus.pkt_count_system.acctest.elem_matrix1_dma.dma::system.acctest.convolution1_spm.port        70976                       # Packet count per connected master and slave (bytes)
system.acctest.local_bus.pkt_count_system.acctest.elem_matrix1_dma.dma::system.acctest.elem_matrix1_spm.port       251140                       # Packet count per connected master and slave (bytes)
system.acctest.local_bus.pkt_count_system.acctest.elem_matrix1_dma.dma::total       346692                       # Packet count per connected master and slave (bytes)
system.acctest.local_bus.pkt_count_system.acctest.elem_matrix2_dma.dma::system.acctest.convolution0_spm.port        12288                       # Packet count per connected master and slave (bytes)
system.acctest.local_bus.pkt_count_system.acctest.elem_matrix2_dma.dma::system.acctest.convolution1_spm.port        16384                       # Packet count per connected master and slave (bytes)
system.acctest.local_bus.pkt_count_system.acctest.elem_matrix2_dma.dma::system.acctest.elem_matrix2_spm.port        86016                       # Packet count per connected master and slave (bytes)
system.acctest.local_bus.pkt_count_system.acctest.elem_matrix2_dma.dma::total       114688                       # Packet count per connected master and slave (bytes)
system.acctest.local_bus.pkt_count_system.acctest.grayscale0_dma.dma::system.acctest.grayscale0_spm.port        86016                       # Packet count per connected master and slave (bytes)
system.acctest.local_bus.pkt_count_system.acctest.grayscale0_dma.dma::system.acctest.isp0_spm.port        33792                       # Packet count per connected master and slave (bytes)
system.acctest.local_bus.pkt_count_system.acctest.grayscale0_dma.dma::total       119808                       # Packet count per connected master and slave (bytes)
system.acctest.local_bus.pkt_count_system.acctest.isp0_dma.dma::system.acctest.isp0_spm.port        15768                       # Packet count per connected master and slave (bytes)
system.acctest.local_bus.pkt_count_system.acctest.isp0_dma.dma::total        15768                       # Packet count per connected master and slave (bytes)
system.acctest.local_bus.pkt_count::total      1546509                       # Packet count per connected master and slave (bytes)
system.acctest.local_bus.pkt_size_system.acctest.mem2cls.master::system.acctest.canny_non_max0.pio           60                       # Cumulative packet size per connected master and slave (bytes)
system.acctest.local_bus.pkt_size_system.acctest.mem2cls.master::system.acctest.canny_non_max0_dma.pio          176                       # Cumulative packet size per connected master and slave (bytes)
system.acctest.local_bus.pkt_size_system.acctest.mem2cls.master::system.acctest.convolution0.pio          840                       # Cumulative packet size per connected master and slave (bytes)
system.acctest.local_bus.pkt_size_system.acctest.mem2cls.master::system.acctest.convolution0_dma.pio         1517                       # Cumulative packet size per connected master and slave (bytes)
system.acctest.local_bus.pkt_size_system.acctest.mem2cls.master::system.acctest.convolution1.pio          866                       # Cumulative packet size per connected master and slave (bytes)
system.acctest.local_bus.pkt_size_system.acctest.mem2cls.master::system.acctest.convolution1_dma.pio         1496                       # Cumulative packet size per connected master and slave (bytes)
system.acctest.local_bus.pkt_size_system.acctest.mem2cls.master::system.acctest.edge_tracking0.pio           92                       # Cumulative packet size per connected master and slave (bytes)
system.acctest.local_bus.pkt_size_system.acctest.mem2cls.master::system.acctest.edge_tracking0_dma.pio          176                       # Cumulative packet size per connected master and slave (bytes)
system.acctest.local_bus.pkt_size_system.acctest.mem2cls.master::system.acctest.elem_matrix0.pio          880                       # Cumulative packet size per connected master and slave (bytes)
system.acctest.local_bus.pkt_size_system.acctest.mem2cls.master::system.acctest.elem_matrix0_dma.pio         2111                       # Cumulative packet size per connected master and slave (bytes)
system.acctest.local_bus.pkt_size_system.acctest.mem2cls.master::system.acctest.elem_matrix1.pio          550                       # Cumulative packet size per connected master and slave (bytes)
system.acctest.local_bus.pkt_size_system.acctest.mem2cls.master::system.acctest.elem_matrix1_dma.pio         1363                       # Cumulative packet size per connected master and slave (bytes)
system.acctest.local_bus.pkt_size_system.acctest.mem2cls.master::system.acctest.elem_matrix2.pio          154                       # Cumulative packet size per connected master and slave (bytes)
system.acctest.local_bus.pkt_size_system.acctest.mem2cls.master::system.acctest.elem_matrix2_dma.pio          462                       # Cumulative packet size per connected master and slave (bytes)
system.acctest.local_bus.pkt_size_system.acctest.mem2cls.master::system.acctest.grayscale0.pio          132                       # Cumulative packet size per connected master and slave (bytes)
system.acctest.local_bus.pkt_size_system.acctest.mem2cls.master::system.acctest.grayscale0_dma.pio          528                       # Cumulative packet size per connected master and slave (bytes)
system.acctest.local_bus.pkt_size_system.acctest.mem2cls.master::system.acctest.isp0.pio          180                       # Cumulative packet size per connected master and slave (bytes)
system.acctest.local_bus.pkt_size_system.acctest.mem2cls.master::system.acctest.isp0_dma.pio          286                       # Cumulative packet size per connected master and slave (bytes)
system.acctest.local_bus.pkt_size_system.acctest.mem2cls.master::total        11869                       # Cumulative packet size per connected master and slave (bytes)
system.acctest.local_bus.pkt_size_system.acctest.canny_non_max0_dma.dma::system.acctest.canny_non_max0_spm.port       524288                       # Cumulative packet size per connected master and slave (bytes)
system.acctest.local_bus.pkt_size_system.acctest.canny_non_max0_dma.dma::system.acctest.elem_matrix0_spm.port       262144                       # Cumulative packet size per connected master and slave (bytes)
system.acctest.local_bus.pkt_size_system.acctest.canny_non_max0_dma.dma::total       786432                       # Cumulative packet size per connected master and slave (bytes)
system.acctest.local_bus.pkt_size_system.acctest.convolution0_dma.dma::system.acctest.convolution0_spm.port      2554616                       # Cumulative packet size per connected master and slave (bytes)
system.acctest.local_bus.pkt_size_system.acctest.convolution0_dma.dma::system.acctest.grayscale0_spm.port        65536                       # Cumulative packet size per connected master and slave (bytes)
system.acctest.local_bus.pkt_size_system.acctest.convolution0_dma.dma::total      2620152                       # Cumulative packet size per connected master and slave (bytes)
system.acctest.local_bus.pkt_size_system.acctest.convolution1_dma.dma::system.acctest.convolution1_spm.port      2427420                       # Cumulative packet size per connected master and slave (bytes)
system.acctest.local_bus.pkt_size_system.acctest.convolution1_dma.dma::system.acctest.grayscale0_spm.port        65536                       # Cumulative packet size per connected master and slave (bytes)
system.acctest.local_bus.pkt_size_system.acctest.convolution1_dma.dma::total      2492956                       # Cumulative packet size per connected master and slave (bytes)
system.acctest.local_bus.pkt_size_system.acctest.edge_tracking0_dma.dma::system.acctest.canny_non_max0_spm.port       262144                       # Cumulative packet size per connected master and slave (bytes)
system.acctest.local_bus.pkt_size_system.acctest.edge_tracking0_dma.dma::system.acctest.edge_tracking0_spm.port       327680                       # Cumulative packet size per connected master and slave (bytes)
system.acctest.local_bus.pkt_size_system.acctest.edge_tracking0_dma.dma::total       589824                       # Cumulative packet size per connected master and slave (bytes)
system.acctest.local_bus.pkt_size_system.acctest.elem_matrix0_dma.dma::system.acctest.convolution0_spm.port      1441792                       # Cumulative packet size per connected master and slave (bytes)
system.acctest.local_bus.pkt_size_system.acctest.elem_matrix0_dma.dma::system.acctest.convolution1_spm.port       681344                       # Cumulative packet size per connected master and slave (bytes)
system.acctest.local_bus.pkt_size_system.acctest.elem_matrix0_dma.dma::system.acctest.elem_matrix0_spm.port      6185412                       # Cumulative packet size per connected master and slave (bytes)
system.acctest.local_bus.pkt_size_system.acctest.elem_matrix0_dma.dma::system.acctest.elem_matrix1_spm.port       262144                       # Cumulative packet size per connected master and slave (bytes)
system.acctest.local_bus.pkt_size_system.acctest.elem_matrix0_dma.dma::total      8570692                       # Cumulative packet size per connected master and slave (bytes)
system.acctest.local_bus.pkt_size_system.acctest.elem_matrix1_dma.dma::system.acctest.convolution0_spm.port       393216                       # Cumulative packet size per connected master and slave (bytes)
system.acctest.local_bus.pkt_size_system.acctest.elem_matrix1_dma.dma::system.acctest.convolution1_spm.port      1135616                       # Cumulative packet size per connected master and slave (bytes)
system.acctest.local_bus.pkt_size_system.acctest.elem_matrix1_dma.dma::system.acctest.elem_matrix1_spm.port      4018240                       # Cumulative packet size per connected master and slave (bytes)
system.acctest.local_bus.pkt_size_system.acctest.elem_matrix1_dma.dma::total      5547072                       # Cumulative packet size per connected master and slave (bytes)
system.acctest.local_bus.pkt_size_system.acctest.elem_matrix2_dma.dma::system.acctest.convolution0_spm.port       196608                       # Cumulative packet size per connected master and slave (bytes)
system.acctest.local_bus.pkt_size_system.acctest.elem_matrix2_dma.dma::system.acctest.convolution1_spm.port       262144                       # Cumulative packet size per connected master and slave (bytes)
system.acctest.local_bus.pkt_size_system.acctest.elem_matrix2_dma.dma::system.acctest.elem_matrix2_spm.port      1376256                       # Cumulative packet size per connected master and slave (bytes)
system.acctest.local_bus.pkt_size_system.acctest.elem_matrix2_dma.dma::total      1835008                       # Cumulative packet size per connected master and slave (bytes)
system.acctest.local_bus.pkt_size_system.acctest.grayscale0_dma.dma::system.acctest.grayscale0_spm.port      1376256                       # Cumulative packet size per connected master and slave (bytes)
system.acctest.local_bus.pkt_size_system.acctest.grayscale0_dma.dma::system.acctest.isp0_spm.port       540672                       # Cumulative packet size per connected master and slave (bytes)
system.acctest.local_bus.pkt_size_system.acctest.grayscale0_dma.dma::total      1916928                       # Cumulative packet size per connected master and slave (bytes)
system.acctest.local_bus.pkt_size_system.acctest.isp0_dma.dma::system.acctest.isp0_spm.port       251952                       # Cumulative packet size per connected master and slave (bytes)
system.acctest.local_bus.pkt_size_system.acctest.isp0_dma.dma::total       251952                       # Cumulative packet size per connected master and slave (bytes)
system.acctest.local_bus.pkt_size::total     24622885                       # Cumulative packet size per connected master and slave (bytes)
system.acctest.local_bus.occupancy         2265505375                       # Network occupancy (ticks)
system.acctest.local_bus.utilization              5.6                       # Network utilization (%)
system.acctest.local_bus.reqLayer0.occupancy   1955877281                       # Layer occupancy (ticks)
system.acctest.local_bus.reqLayer0.utilization          4.8                       # Layer utilization (%)
system.acctest.local_bus.respLayer0.occupancy   1481758000                       # Layer occupancy (ticks)
system.acctest.local_bus.respLayer0.utilization          3.6                       # Layer utilization (%)
system.acctest.isp0.pwrStateResidencyTicks::UNDEFINED  41330425000                       # Cumulative time (in ticks) in various power states
system.acctest.edge_tracking0.pwrStateResidencyTicks::UNDEFINED  41330425000                       # Cumulative time (in ticks) in various power states
system.acctest.grayscale0_spm.pwrStateResidencyTicks::UNDEFINED  41330425000                       # Cumulative time (in ticks) in various power states
system.acctest.grayscale0_spm.bytes_read::.acctest.convolution0_dma        65536                       # Number of bytes read from this memory
system.acctest.grayscale0_spm.bytes_read::.acctest.convolution1_dma        65536                       # Number of bytes read from this memory
system.acctest.grayscale0_spm.bytes_read::.acctest.grayscale0.system.acctest.grayscale0       589824                       # Number of bytes read from this memory
system.acctest.grayscale0_spm.bytes_read::.acctest.grayscale0_dma       786432                       # Number of bytes read from this memory
system.acctest.grayscale0_spm.bytes_read::total      1507328                       # Number of bytes read from this memory
system.acctest.grayscale0_spm.bytes_written::.acctest.grayscale0.system.acctest.grayscale0       786432                       # Number of bytes written to this memory
system.acctest.grayscale0_spm.bytes_written::.acctest.grayscale0_dma       589824                       # Number of bytes written to this memory
system.acctest.grayscale0_spm.bytes_written::total      1376256                       # Number of bytes written to this memory
system.acctest.grayscale0_spm.num_reads::.acctest.convolution0_dma         2048                       # Number of read requests responded to by this memory
system.acctest.grayscale0_spm.num_reads::.acctest.convolution1_dma         2048                       # Number of read requests responded to by this memory
system.acctest.grayscale0_spm.num_reads::.acctest.grayscale0.system.acctest.grayscale0       589824                       # Number of read requests responded to by this memory
system.acctest.grayscale0_spm.num_reads::.acctest.grayscale0_dma        24576                       # Number of read requests responded to by this memory
system.acctest.grayscale0_spm.num_reads::total       618496                       # Number of read requests responded to by this memory
system.acctest.grayscale0_spm.num_writes::.acctest.grayscale0.system.acctest.grayscale0       196608                       # Number of write requests responded to by this memory
system.acctest.grayscale0_spm.num_writes::.acctest.grayscale0_dma        18432                       # Number of write requests responded to by this memory
system.acctest.grayscale0_spm.num_writes::total       215040                       # Number of write requests responded to by this memory
system.acctest.grayscale0_spm.bw_read::.acctest.convolution0_dma      1607674                       # Total read bandwidth from this memory (bytes/s)
system.acctest.grayscale0_spm.bw_read::.acctest.convolution1_dma      1607674                       # Total read bandwidth from this memory (bytes/s)
system.acctest.grayscale0_spm.bw_read::.acctest.grayscale0.system.acctest.grayscale0     14469068                       # Total read bandwidth from this memory (bytes/s)
system.acctest.grayscale0_spm.bw_read::.acctest.grayscale0_dma     19292091                       # Total read bandwidth from this memory (bytes/s)
system.acctest.grayscale0_spm.bw_read::total     36976507                       # Total read bandwidth from this memory (bytes/s)
system.acctest.grayscale0_spm.bw_write::.acctest.grayscale0.system.acctest.grayscale0     19292091                       # Write bandwidth from this memory (bytes/s)
system.acctest.grayscale0_spm.bw_write::.acctest.grayscale0_dma     14469068                       # Write bandwidth from this memory (bytes/s)
system.acctest.grayscale0_spm.bw_write::total     33761159                       # Write bandwidth from this memory (bytes/s)
system.acctest.grayscale0_spm.bw_total::.acctest.convolution0_dma      1607674                       # Total bandwidth to/from this memory (bytes/s)
system.acctest.grayscale0_spm.bw_total::.acctest.convolution1_dma      1607674                       # Total bandwidth to/from this memory (bytes/s)
system.acctest.grayscale0_spm.bw_total::.acctest.grayscale0.system.acctest.grayscale0     33761159                       # Total bandwidth to/from this memory (bytes/s)
system.acctest.grayscale0_spm.bw_total::.acctest.grayscale0_dma     33761159                       # Total bandwidth to/from this memory (bytes/s)
system.acctest.grayscale0_spm.bw_total::total     70737666                       # Total bandwidth to/from this memory (bytes/s)
system.acctest.elem_matrix1_dma.pwrStateResidencyTicks::UNDEFINED  41330425000                       # Cumulative time (in ticks) in various power states
system.acctest.mem2cls.pwrStateResidencyTicks::UNDEFINED  41330425000                       # Cumulative time (in ticks) in various power states
system.acctest.isp0_dma.pwrStateResidencyTicks::UNDEFINED  41330425000                       # Cumulative time (in ticks) in various power states
system.acctest.grayscale0_dma.pwrStateResidencyTicks::UNDEFINED  41330425000                       # Cumulative time (in ticks) in various power states
system.acctest.convolution0.pwrStateResidencyTicks::UNDEFINED  41330425000                       # Cumulative time (in ticks) in various power states
system.acctest.convolution1.pwrStateResidencyTicks::UNDEFINED  41330425000                       # Cumulative time (in ticks) in various power states
system.acctest.isp0_spm.pwrStateResidencyTicks::UNDEFINED  41330425000                       # Cumulative time (in ticks) in various power states
system.acctest.isp0_spm.bytes_read::.acctest.grayscale0_dma       540672                       # Number of bytes read from this memory
system.acctest.isp0_spm.bytes_read::.acctest.isp0.system.acctest.isp0      1376256                       # Number of bytes read from this memory
system.acctest.isp0_spm.bytes_read::.acctest.isp0_dma        49152                       # Number of bytes read from this memory
system.acctest.isp0_spm.bytes_read::total      1966080                       # Number of bytes read from this memory
system.acctest.isp0_spm.bytes_written::.acctest.isp0.system.acctest.isp0       589824                       # Number of bytes written to this memory
system.acctest.isp0_spm.bytes_written::.acctest.isp0_dma       202800                       # Number of bytes written to this memory
system.acctest.isp0_spm.bytes_written::total       792624                       # Number of bytes written to this memory
system.acctest.isp0_spm.num_reads::.acctest.grayscale0_dma        16896                       # Number of read requests responded to by this memory
system.acctest.isp0_spm.num_reads::.acctest.isp0.system.acctest.isp0      1376256                       # Number of read requests responded to by this memory
system.acctest.isp0_spm.num_reads::.acctest.isp0_dma         1536                       # Number of read requests responded to by this memory
system.acctest.isp0_spm.num_reads::total      1394688                       # Number of read requests responded to by this memory
system.acctest.isp0_spm.num_writes::.acctest.isp0.system.acctest.isp0       589824                       # Number of write requests responded to by this memory
system.acctest.isp0_spm.num_writes::.acctest.isp0_dma         6348                       # Number of write requests responded to by this memory
system.acctest.isp0_spm.num_writes::total       596172                       # Number of write requests responded to by this memory
system.acctest.isp0_spm.bw_read::.acctest.grayscale0_dma     13263312                       # Total read bandwidth from this memory (bytes/s)
system.acctest.isp0_spm.bw_read::.acctest.isp0.system.acctest.isp0     33761159                       # Total read bandwidth from this memory (bytes/s)
system.acctest.isp0_spm.bw_read::.acctest.isp0_dma      1205756                       # Total read bandwidth from this memory (bytes/s)
system.acctest.isp0_spm.bw_read::total       48230227                       # Total read bandwidth from this memory (bytes/s)
system.acctest.isp0_spm.bw_write::.acctest.isp0.system.acctest.isp0     14469068                       # Write bandwidth from this memory (bytes/s)
system.acctest.isp0_spm.bw_write::.acctest.isp0_dma      4974920                       # Write bandwidth from this memory (bytes/s)
system.acctest.isp0_spm.bw_write::total      19443988                       # Write bandwidth from this memory (bytes/s)
system.acctest.isp0_spm.bw_total::.acctest.grayscale0_dma     13263312                       # Total bandwidth to/from this memory (bytes/s)
system.acctest.isp0_spm.bw_total::.acctest.isp0.system.acctest.isp0     48230227                       # Total bandwidth to/from this memory (bytes/s)
system.acctest.isp0_spm.bw_total::.acctest.isp0_dma      6180675                       # Total bandwidth to/from this memory (bytes/s)
system.acctest.isp0_spm.bw_total::total      67674215                       # Total bandwidth to/from this memory (bytes/s)
system.acctest.coherency_bus.pwrStateResidencyTicks::UNDEFINED  41330425000                       # Cumulative time (in ticks) in various power states
system.acctest.coherency_bus.trans_dist::ReadReq       122803                       # Transaction distribution
system.acctest.coherency_bus.trans_dist::ReadResp       122800                       # Transaction distribution
system.acctest.coherency_bus.trans_dist::WriteReq        87808                       # Transaction distribution
system.acctest.coherency_bus.trans_dist::WriteResp        87808                       # Transaction distribution
system.acctest.coherency_bus.pkt_count_system.acctest.canny_non_max0_dma.dma::system.membus.slave[7]         8192                       # Packet count per connected master and slave (bytes)
system.acctest.coherency_bus.pkt_count_system.acctest.convolution0_dma.dma::system.membus.slave[7]        77853                       # Packet count per connected master and slave (bytes)
system.acctest.coherency_bus.pkt_count_system.acctest.convolution1_dma.dma::system.membus.slave[7]        73836                       # Packet count per connected master and slave (bytes)
system.acctest.coherency_bus.pkt_count_system.acctest.edge_tracking0_dma.dma::system.membus.slave[7]         2048                       # Packet count per connected master and slave (bytes)
system.acctest.coherency_bus.pkt_count_system.acctest.elem_matrix0_dma.dma::system.membus.slave[7]       118786                       # Packet count per connected master and slave (bytes)
system.acctest.coherency_bus.pkt_count_system.acctest.elem_matrix1_dma.dma::system.membus.slave[7]        77824                       # Packet count per connected master and slave (bytes)
system.acctest.coherency_bus.pkt_count_system.acctest.elem_matrix2_dma.dma::system.membus.slave[7]        28672                       # Packet count per connected master and slave (bytes)
system.acctest.coherency_bus.pkt_count_system.acctest.grayscale0_dma.dma::system.membus.slave[7]        26112                       # Packet count per connected master and slave (bytes)
system.acctest.coherency_bus.pkt_count_system.acctest.isp0_dma.dma::system.membus.slave[7]         7896                       # Packet count per connected master and slave (bytes)
system.acctest.coherency_bus.pkt_count::total       421219                       # Packet count per connected master and slave (bytes)
system.acctest.coherency_bus.pkt_size_system.acctest.canny_non_max0_dma.dma::system.membus.slave[7]       262144                       # Cumulative packet size per connected master and slave (bytes)
system.acctest.coherency_bus.pkt_size_system.acctest.convolution0_dma.dma::system.membus.slave[7]      2490360                       # Cumulative packet size per connected master and slave (bytes)
system.acctest.coherency_bus.pkt_size_system.acctest.convolution1_dma.dma::system.membus.slave[7]      2361884                       # Cumulative packet size per connected master and slave (bytes)
system.acctest.coherency_bus.pkt_size_system.acctest.edge_tracking0_dma.dma::system.membus.slave[7]        65536                       # Cumulative packet size per connected master and slave (bytes)
system.acctest.coherency_bus.pkt_size_system.acctest.elem_matrix0_dma.dma::system.membus.slave[7]      3801092                       # Cumulative packet size per connected master and slave (bytes)
system.acctest.coherency_bus.pkt_size_system.acctest.elem_matrix1_dma.dma::system.membus.slave[7]      2490368                       # Cumulative packet size per connected master and slave (bytes)
system.acctest.coherency_bus.pkt_size_system.acctest.elem_matrix2_dma.dma::system.membus.slave[7]       917504                       # Cumulative packet size per connected master and slave (bytes)
system.acctest.coherency_bus.pkt_size_system.acctest.grayscale0_dma.dma::system.membus.slave[7]       835584                       # Cumulative packet size per connected master and slave (bytes)
system.acctest.coherency_bus.pkt_size_system.acctest.isp0_dma.dma::system.membus.slave[7]       251952                       # Cumulative packet size per connected master and slave (bytes)
system.acctest.coherency_bus.pkt_size::total     13476424                       # Cumulative packet size per connected master and slave (bytes)
system.acctest.coherency_bus.snoops                 0                       # Total snoops (count)
system.acctest.coherency_bus.snoopTraffic            0                       # Total snoop traffic (bytes)
system.acctest.coherency_bus.snoop_fanout::samples       282482                       # Request fanout histogram
system.acctest.coherency_bus.snoop_fanout::mean            0                       # Request fanout histogram
system.acctest.coherency_bus.snoop_fanout::stdev            0                       # Request fanout histogram
system.acctest.coherency_bus.snoop_fanout::underflows            0      0.00%      0.00% # Request fanout histogram
system.acctest.coherency_bus.snoop_fanout::0       282482    100.00%    100.00% # Request fanout histogram
system.acctest.coherency_bus.snoop_fanout::overflows            0      0.00%    100.00% # Request fanout histogram
system.acctest.coherency_bus.snoop_fanout::min_value            0                       # Request fanout histogram
system.acctest.coherency_bus.snoop_fanout::max_value            0                       # Request fanout histogram
system.acctest.coherency_bus.snoop_fanout::total       282482                       # Request fanout histogram
system.acctest.coherency_bus.reqLayer0.occupancy    680506000                       # Layer occupancy (ticks)
system.acctest.coherency_bus.reqLayer0.utilization          1.7                       # Layer utilization (%)
system.acctest.coherency_bus.respLayer0.occupancy    701708000                       # Layer occupancy (ticks)
system.acctest.coherency_bus.respLayer0.utilization          1.7                       # Layer utilization (%)
system.acctest.convolution0_spm.pwrStateResidencyTicks::UNDEFINED  41330425000                       # Cumulative time (in ticks) in various power states
system.acctest.convolution0_spm.bytes_read::.acctest.convolution0.system.acctest.convolution0     80083392                       # Number of bytes read from this memory
system.acctest.convolution0_spm.bytes_read::.acctest.convolution0_dma       524288                       # Number of bytes read from this memory
system.acctest.convolution0_spm.bytes_read::.acctest.elem_matrix0_dma      1441792                       # Number of bytes read from this memory
system.acctest.convolution0_spm.bytes_read::.acctest.elem_matrix1_dma       393216                       # Number of bytes read from this memory
system.acctest.convolution0_spm.bytes_read::.acctest.elem_matrix2_dma       196608                       # Number of bytes read from this memory
system.acctest.convolution0_spm.bytes_read::total     82639296                       # Number of bytes read from this memory
system.acctest.convolution0_spm.bytes_written::.acctest.convolution0.system.acctest.convolution0      1966080                       # Number of bytes written to this memory
system.acctest.convolution0_spm.bytes_written::.acctest.convolution0_dma      2030328                       # Number of bytes written to this memory
system.acctest.convolution0_spm.bytes_written::total      3996408                       # Number of bytes written to this memory
system.acctest.convolution0_spm.num_reads::.acctest.convolution0.system.acctest.convolution0     20020848                       # Number of read requests responded to by this memory
system.acctest.convolution0_spm.num_reads::.acctest.convolution0_dma        16384                       # Number of read requests responded to by this memory
system.acctest.convolution0_spm.num_reads::.acctest.elem_matrix0_dma        45056                       # Number of read requests responded to by this memory
system.acctest.convolution0_spm.num_reads::.acctest.elem_matrix1_dma        12288                       # Number of read requests responded to by this memory
system.acctest.convolution0_spm.num_reads::.acctest.elem_matrix2_dma         6144                       # Number of read requests responded to by this memory
system.acctest.convolution0_spm.num_reads::total     20100720                       # Number of read requests responded to by this memory
system.acctest.convolution0_spm.num_writes::.acctest.convolution0.system.acctest.convolution0       491520                       # Number of write requests responded to by this memory
system.acctest.convolution0_spm.num_writes::.acctest.convolution0_dma        63474                       # Number of write requests responded to by this memory
[...]
system.cpu.icache.tags.total_refs              963171                       # Total number of references to valid blocks.
system.cpu.icache.tags.sampled_refs               482                       # Sample count of references to valid blocks.
system.cpu.icache.tags.avg_refs           1998.280083                       # Average number of references to valid blocks.
system.cpu.icache.tags.warmup_cycle                 0                       # Cycle when the warmup percentage was hit.
system.cpu.icache.tags.occ_blocks::.cpu.inst   400.342333                       # Average occupied blocks per requestor
system.cpu.icache.tags.occ_percent::.cpu.inst     0.781919                       # Average percentage of cache occupancy
system.cpu.icache.tags.occ_percent::total     0.781919                       # Average percentage of cache occupancy
system.cpu.icache.tags.occ_task_id_blocks::1024          412                       # Occupied blocks per task id
system.cpu.icache.tags.age_task_id_blocks_1024::3           23                       # Occupied blocks per task id
system.cpu.icache.tags.age_task_id_blocks_1024::4          389                       # Occupied blocks per task id
system.cpu.icache.tags.occ_task_id_percent::1024     0.804688                       # Percentage of cache occupancy per task id
system.cpu.icache.tags.tag_accesses           1626951                       # Number of tag accesses
system.cpu.icache.tags.data_accesses          1626951                       # Number of data accesses
system.cpu.dtb.walker.pwrStateResidencyTicks::UNDEFINED  41330425000                       # Cumulative time (in ticks) in various power states
system.cpu.dtb.stage2_mmu.stage2_tlb.walker.pwrStateResidencyTicks::UNDEFINED  41330425000                       # Cumulative time (in ticks) in various power states
system.cpu.dcache.pwrStateResidencyTicks::UNDEFINED  41330425000                       # Cumulative time (in ticks) in various power states
system.cpu.dcache.demand_hits::.cpu.data       150094                       # number of demand (read+write) hits
system.cpu.dcache.demand_hits::total           150094                       # number of demand (read+write) hits
system.cpu.dcache.overall_hits::.cpu.data       150094                       # number of overall hits
system.cpu.dcache.overall_hits::total          150094                       # number of overall hits
system.cpu.dcache.demand_misses::.cpu.data         1028                       # number of demand (read+write) misses
system.cpu.dcache.demand_misses::total           1028                       # number of demand (read+write) misses
system.cpu.dcache.overall_misses::.cpu.data         1028                       # number of overall misses
system.cpu.dcache.overall_misses::total          1028                       # number of overall misses
system.cpu.dcache.demand_miss_latency::.cpu.data     90495250                       # number of demand (read+write) miss cycles
system.cpu.dcache.demand_miss_latency::total     90495250                       # number of demand (read+write) miss cycles
system.cpu.dcache.overall_miss_latency::.cpu.data     90495250                       # number of overall miss cycles
system.cpu.dcache.overall_miss_latency::total     90495250                       # number of overall miss cycles
system.cpu.dcache.demand_accesses::.cpu.data       151122                       # number of demand (read+write) accesses
system.cpu.dcache.demand_accesses::total       151122                       # number of demand (read+write) accesses
system.cpu.dcache.overall_accesses::.cpu.data       151122                       # number of overall (read+write) accesses
system.cpu.dcache.overall_accesses::total       151122                       # number of overall (read+write) accesses
system.cpu.dcache.demand_miss_rate::.cpu.data     0.006802                       # miss rate for demand accesses
system.cpu.dcache.demand_miss_rate::total     0.006802                       # miss rate for demand accesses
system.cpu.dcache.overall_miss_rate::.cpu.data     0.006802                       # miss rate for overall accesses
system.cpu.dcache.overall_miss_rate::total     0.006802                       # miss rate for overall accesses
system.cpu.dcache.demand_avg_miss_latency::.cpu.data 88030.398833                       # average overall miss latency
system.cpu.dcache.demand_avg_miss_latency::total 88030.398833                       # average overall miss latency
system.cpu.dcache.overall_avg_miss_latency::.cpu.data 88030.398833                       # average overall miss latency
system.cpu.dcache.overall_avg_miss_latency::total 88030.398833                       # average overall miss latency
system.cpu.dcache.blocked_cycles::no_mshrs            0                       # number of cycles access was blocked
system.cpu.dcache.blocked_cycles::no_targets            0                       # number of cycles access was blocked
system.cpu.dcache.blocked::no_mshrs                 0                       # number of cycles access was blocked
system.cpu.dcache.blocked::no_targets               0                       # number of cycles access was blocked
system.cpu.dcache.avg_blocked_cycles::no_mshrs          nan                       # average number of cycles each access was blocked
system.cpu.dcache.avg_blocked_cycles::no_targets          nan                       # average number of cycles each access was blocked
system.cpu.dcache.writebacks::.writebacks          451                       # number of writebacks
system.cpu.dcache.writebacks::total               451                       # number of writebacks
system.cpu.dcache.demand_mshr_hits::.cpu.data          272                       # number of demand (read+write) MSHR hits
system.cpu.dcache.demand_mshr_hits::total          272                       # number of demand (read+write) MSHR hits
system.cpu.dcache.overall_mshr_hits::.cpu.data          272                       # number of overall MSHR hits
system.cpu.dcache.overall_mshr_hits::total          272                       # number of overall MSHR hits
system.cpu.dcache.demand_mshr_misses::.cpu.data          756                       # number of demand (read+write) MSHR misses
system.cpu.dcache.demand_mshr_misses::total          756                       # number of demand (read+write) MSHR misses
system.cpu.dcache.overall_mshr_misses::.cpu.data          756                       # number of overall MSHR misses
system.cpu.dcache.overall_mshr_misses::total          756                       # number of overall MSHR misses
system.cpu.dcache.overall_mshr_uncacheable_misses::.cpu.data         5156                       # number of overall MSHR uncacheable misses
system.cpu.dcache.overall_mshr_uncacheable_misses::total         5156                       # number of overall MSHR uncacheable misses
system.cpu.dcache.demand_mshr_miss_latency::.cpu.data     65212125                       # number of demand (read+write) MSHR miss cycles
system.cpu.dcache.demand_mshr_miss_latency::total     65212125                       # number of demand (read+write) MSHR miss cycles
system.cpu.dcache.overall_mshr_miss_latency::.cpu.data     65212125                       # number of overall MSHR miss cycles
system.cpu.dcache.overall_mshr_miss_latency::total     65212125                       # number of overall MSHR miss cycles
system.cpu.dcache.overall_mshr_uncacheable_latency::.cpu.data     11519375                       # number of overall MSHR uncacheable cycles
system.cpu.dcache.overall_mshr_uncacheable_latency::total     11519375                       # number of overall MSHR uncacheable cycles
system.cpu.dcache.demand_mshr_miss_rate::.cpu.data     0.005003                       # mshr miss rate for demand accesses
system.cpu.dcache.demand_mshr_miss_rate::total     0.005003                       # mshr miss rate for demand accesses
system.cpu.dcache.overall_mshr_miss_rate::.cpu.data     0.005003                       # mshr miss rate for overall accesses
system.cpu.dcache.overall_mshr_miss_rate::total     0.005003                       # mshr miss rate for overall accesses
system.cpu.dcache.demand_avg_mshr_miss_latency::.cpu.data 86259.424603                       # average overall mshr miss latency
system.cpu.dcache.demand_avg_mshr_miss_latency::total 86259.424603                       # average overall mshr miss latency
system.cpu.dcache.overall_avg_mshr_miss_latency::.cpu.data 86259.424603                       # average overall mshr miss latency
system.cpu.dcache.overall_avg_mshr_miss_latency::total 86259.424603                       # average overall mshr miss latency
system.cpu.dcache.overall_avg_mshr_uncacheable_latency::.cpu.data  2234.168929                       # average overall mshr uncacheable latency
system.cpu.dcache.overall_avg_mshr_uncacheable_latency::total  2234.168929                       # average overall mshr uncacheable latency
system.cpu.dcache.replacements                    745                       # number of replacements
system.cpu.dcache.ReadReq_hits::.cpu.data        91662                       # number of ReadReq hits
system.cpu.dcache.ReadReq_hits::total           91662                       # number of ReadReq hits
system.cpu.dcache.ReadReq_misses::.cpu.data          517                       # number of ReadReq misses
system.cpu.dcache.ReadReq_misses::total           517                       # number of ReadReq misses
system.cpu.dcache.ReadReq_miss_latency::.cpu.data     44508250                       # number of ReadReq miss cycles
system.cpu.dcache.ReadReq_miss_latency::total     44508250                       # number of ReadReq miss cycles
system.cpu.dcache.ReadReq_accesses::.cpu.data        92179                       # number of ReadReq accesses(hits+misses)
system.cpu.dcache.ReadReq_accesses::total        92179                       # number of ReadReq accesses(hits+misses)
system.cpu.dcache.ReadReq_miss_rate::.cpu.data     0.005609                       # miss rate for ReadReq accesses
system.cpu.dcache.ReadReq_miss_rate::total     0.005609                       # miss rate for ReadReq accesses
system.cpu.dcache.ReadReq_avg_miss_latency::.cpu.data 86089.458414                       # average ReadReq miss latency
system.cpu.dcache.ReadReq_avg_miss_latency::total 86089.458414                       # average ReadReq miss latency
system.cpu.dcache.ReadReq_mshr_hits::.cpu.data           33                       # number of ReadReq MSHR hits
system.cpu.dcache.ReadReq_mshr_hits::total           33                       # number of ReadReq MSHR hits
system.cpu.dcache.ReadReq_mshr_misses::.cpu.data          484                       # number of ReadReq MSHR misses
system.cpu.dcache.ReadReq_mshr_misses::total          484                       # number of ReadReq MSHR misses
system.cpu.dcache.ReadReq_mshr_uncacheable::.cpu.data          530                       # number of ReadReq MSHR uncacheable
system.cpu.dcache.ReadReq_mshr_uncacheable::total          530                       # number of ReadReq MSHR uncacheable
system.cpu.dcache.ReadReq_mshr_miss_latency::.cpu.data     40803125                       # number of ReadReq MSHR miss cycles
system.cpu.dcache.ReadReq_mshr_miss_latency::total     40803125                       # number of ReadReq MSHR miss cycles
system.cpu.dcache.ReadReq_mshr_uncacheable_latency::.cpu.data     11519375                       # number of ReadReq MSHR uncacheable cycles
system.cpu.dcache.ReadReq_mshr_uncacheable_latency::total     11519375                       # number of ReadReq MSHR uncacheable cycles
system.cpu.dcache.ReadReq_mshr_miss_rate::.cpu.data     0.005251                       # mshr miss rate for ReadReq accesses
system.cpu.dcache.ReadReq_mshr_miss_rate::total     0.005251                       # mshr miss rate for ReadReq accesses
system.cpu.dcache.ReadReq_avg_mshr_miss_latency::.cpu.data 84303.977273                       # average ReadReq mshr miss latency
system.cpu.dcache.ReadReq_avg_mshr_miss_latency::total 84303.977273                       # average ReadReq mshr miss latency
system.cpu.dcache.ReadReq_avg_mshr_uncacheable_latency::.cpu.data 21734.669811                       # average ReadReq mshr uncacheable latency
system.cpu.dcache.ReadReq_avg_mshr_uncacheable_latency::total 21734.669811                       # average ReadReq mshr uncacheable latency
system.cpu.dcache.WriteReq_hits::.cpu.data        58432                       # number of WriteReq hits
system.cpu.dcache.WriteReq_hits::total          58432                       # number of WriteReq hits
system.cpu.dcache.WriteReq_misses::.cpu.data          511                       # number of WriteReq misses
system.cpu.dcache.WriteReq_misses::total          511                       # number of WriteReq misses
system.cpu.dcache.WriteReq_miss_latency::.cpu.data     45987000                       # number of WriteReq miss cycles
system.cpu.dcache.WriteReq_miss_latency::total     45987000                       # number of WriteReq miss cycles
system.cpu.dcache.WriteReq_accesses::.cpu.data        58943                       # number of WriteReq accesses(hits+misses)
system.cpu.dcache.WriteReq_accesses::total        58943                       # number of WriteReq accesses(hits+misses)
system.cpu.dcache.WriteReq_miss_rate::.cpu.data     0.008669                       # miss rate for WriteReq accesses
system.cpu.dcache.WriteReq_miss_rate::total     0.008669                       # miss rate for WriteReq accesses
system.cpu.dcache.WriteReq_avg_miss_latency::.cpu.data 89994.129159                       # average WriteReq miss latency
system.cpu.dcache.WriteReq_avg_miss_latency::total 89994.129159                       # average WriteReq miss latency
system.cpu.dcache.WriteReq_mshr_hits::.cpu.data          239                       # number of WriteReq MSHR hits
system.cpu.dcache.WriteReq_mshr_hits::total          239                       # number of WriteReq MSHR hits
system.cpu.dcache.WriteReq_mshr_misses::.cpu.data          272                       # number of WriteReq MSHR misses
system.cpu.dcache.WriteReq_mshr_misses::total          272                       # number of WriteReq MSHR misses
system.cpu.dcache.WriteReq_mshr_uncacheable::.cpu.data         4626                       # number of WriteReq MSHR uncacheable
system.cpu.dcache.WriteReq_mshr_uncacheable::total         4626                       # number of WriteReq MSHR uncacheable
system.cpu.dcache.WriteReq_mshr_miss_latency::.cpu.data     24409000                       # number of WriteReq MSHR miss cycles
system.cpu.dcache.WriteReq_mshr_miss_latency::total     24409000                       # number of WriteReq MSHR miss cycles
system.cpu.dcache.WriteReq_mshr_miss_rate::.cpu.data     0.004615                       # mshr miss rate for WriteReq accesses
system.cpu.dcache.WriteReq_mshr_miss_rate::total     0.004615                       # mshr miss rate for WriteReq accesses
system.cpu.dcache.WriteReq_avg_mshr_miss_latency::.cpu.data 89738.970588                       # average WriteReq mshr miss latency
system.cpu.dcache.WriteReq_avg_mshr_miss_latency::total 89738.970588                       # average WriteReq mshr miss latency
system.cpu.dcache.CleanInvalidReq_mshr_misses::.cpu.data       210647                       # number of CleanInvalidReq MSHR misses
system.cpu.dcache.CleanInvalidReq_mshr_misses::total       210647                       # number of CleanInvalidReq MSHR misses
system.cpu.dcache.CleanInvalidReq_mshr_miss_latency::.cpu.data   2207481750                       # number of CleanInvalidReq MSHR miss cycles
system.cpu.dcache.CleanInvalidReq_mshr_miss_latency::total   2207481750                       # number of CleanInvalidReq MSHR miss cycles
system.cpu.dcache.CleanInvalidReq_mshr_miss_rate::.cpu.data          inf                       # mshr miss rate for CleanInvalidReq accesses
system.cpu.dcache.CleanInvalidReq_mshr_miss_rate::total          inf                       # mshr miss rate for CleanInvalidReq accesses
system.cpu.dcache.CleanInvalidReq_avg_mshr_miss_latency::.cpu.data 10479.530921                       # average CleanInvalidReq mshr miss latency
system.cpu.dcache.CleanInvalidReq_avg_mshr_miss_latency::total 10479.530921                       # average CleanInvalidReq mshr miss latency
system.cpu.dcache.InvalidateReq_mshr_hits::.cpu.data        44332                       # number of InvalidateReq MSHR hits
system.cpu.dcache.InvalidateReq_mshr_hits::total        44332                       # number of InvalidateReq MSHR hits
system.cpu.dcache.InvalidateReq_mshr_misses::.cpu.data       166315                       # number of InvalidateReq MSHR misses
system.cpu.dcache.InvalidateReq_mshr_misses::total       166315                       # number of InvalidateReq MSHR misses
system.cpu.dcache.InvalidateReq_mshr_miss_latency::.cpu.data   2137385100                       # number of InvalidateReq MSHR miss cycles
system.cpu.dcache.InvalidateReq_mshr_miss_latency::total   2137385100                       # number of InvalidateReq MSHR miss cycles
system.cpu.dcache.InvalidateReq_mshr_miss_rate::.cpu.data          inf                       # mshr miss rate for InvalidateReq accesses
system.cpu.dcache.InvalidateReq_mshr_miss_rate::total          inf                       # mshr miss rate for InvalidateReq accesses
system.cpu.dcache.InvalidateReq_avg_mshr_miss_latency::.cpu.data 12851.427111                       # average InvalidateReq mshr miss latency
system.cpu.dcache.InvalidateReq_avg_mshr_miss_latency::total 12851.427111                       # average InvalidateReq mshr miss latency
system.cpu.dcache.tags.pwrStateResidencyTicks::UNDEFINED  41330425000                       # Cumulative time (in ticks) in various power states
system.cpu.dcache.tags.tagsinuse           505.141276                       # Cycle average of tags in use
system.cpu.dcache.tags.total_refs              157577                       # Total number of references to valid blocks.
system.cpu.dcache.tags.sampled_refs              1268                       # Sample count of references to valid blocks.
system.cpu.dcache.tags.avg_refs            124.272082                       # Average number of references to valid blocks.
system.cpu.dcache.tags.warmup_cycle                 0                       # Cycle when the warmup percentage was hit.
system.cpu.dcache.tags.occ_blocks::.cpu.data   505.141276                       # Average occupied blocks per requestor
system.cpu.dcache.tags.occ_percent::.cpu.data     0.986604                       # Average percentage of cache occupancy
system.cpu.dcache.tags.occ_percent::total     0.986604                       # Average percentage of cache occupancy
system.cpu.dcache.tags.occ_task_id_blocks::1024          508                       # Occupied blocks per task id
system.cpu.dcache.tags.age_task_id_blocks_1024::1           13                       # Occupied blocks per task id
system.cpu.dcache.tags.age_task_id_blocks_1024::3          198                       # Occupied blocks per task id
system.cpu.dcache.tags.age_task_id_blocks_1024::4          297                       # Occupied blocks per task id
system.cpu.dcache.tags.occ_task_id_percent::1024     0.992188                       # Percentage of cache occupancy per task id
system.cpu.dcache.tags.tag_accesses           2290420                       # Number of tag accesses
system.cpu.dcache.tags.data_accesses          2290420                       # Number of data accesses
system.cpu.itb.walker.pwrStateResidencyTicks::UNDEFINED  41330425000                       # Cumulative time (in ticks) in various power states
system.cpu.itb.stage2_mmu.stage2_tlb.walker.pwrStateResidencyTicks::UNDEFINED  41330425000                       # Cumulative time (in ticks) in various power states

---------- End Simulation Statistics   ----------
