gem5 Simulator System.  http://gem5.org
gem5 is copyrighted software; use the --copyright option for details.

gem5 compiled Jun 12 2023 18:40:01
gem5 started Jul 11 2023 22:51:37
gem5 executing on node4x10a.cs.rochester.edu, pid 42466
command line: /u/sgupta45/gem5-SALAM/build/ARM/gem5_bus.opt --debug-flags=HWACC,CommInterface,LLVMInterface,StreamDma,NoncoherentDma,TickTimer,SchedulerStats --outdir=BM_ARM_OUT/comb_pred_3_enhanced_fixed/canny_1_deblur_1_gru_1_harris_0_lstm_0_ELF_MEM_PRED_AVERAGE_15_dm_false configs/SALAM/scheduler.py --mem-size=4GB --mem-type=LPDDR5_6400_1x16_BG_BL32 --kernel=/u/sgupta45/gem5-SALAM/benchmarks/scheduler/sw/bin_comb_pred_3_enhanced/canny_1_deblur_1_gru_1_harris_0_lstm_0_ELF_MEM_PRED_AVERAGE_15_dm_false.elf --vans-config-path=/u/sgupta45/VANS/config --disk-image=/u/sgupta45/gem5-SALAM/baremetal/common/fake.iso --machine-type=VExpress_GEM5_V1 --dtb-file=none --bare-metal --cpu-type=ex5_LITTLE --cpu-clock=1.6GHz --accpath=/u/sgupta45/gem5-SALAM/benchmarks --caches --cacheline_size=64 --l1d_size=32kB --l1d_assoc=4 --l1i_size=32kB --l1i_assoc=2

info: Standard input is not a terminal, disabling listeners.
Global frequency set at 1000000000000 ticks per second
Cycle Counts Loaded!
Cycle Counts Loaded!
Cycle Counts Loaded!
Cycle Counts Loaded!
Cycle Counts Loaded!
Cycle Counts Loaded!
Cycle Counts Loaded!
Cycle Counts Loaded!
Cycle Counts Loaded!
Cycle Counts Loaded!
Cycle Counts Loaded!
**** REAL SIMULATION ****
3858622500: global: Timer #4 started at tick 3858622500
3858885625: global: Timer #4 stopped at tick 3858885625. Duration: 263125
3858948750: global: Timer #5 started at tick 3858948750
3859057500: global: Timer #5 stopped at tick 3859057500. Duration: 108750
3860199375: global: Timer #2 started at tick 3860199375
3860794375: global: Timer #2 stopped at tick 3860794375. Duration: 595000
3864546875: global: Timer #4 started at tick 3864546875
3864576250: global: Timer #4 stopped at tick 3864576250. Duration: 29375
3864591875: global: Timer #5 started at tick 3864591875
3864606875: global: Timer #5 stopped at tick 3864606875. Duration: 15000
3864951250: global: Timer #2 started at tick 3864951250
3865042500: global: Timer #2 stopped at tick 3865042500. Duration: 91250
3871068750: global: Timer #4 started at tick 3871068750
3871178125: global: Timer #4 stopped at tick 3871178125. Duration: 109375
3871193750: global: Timer #5 started at tick 3871193750
3871208750: global: Timer #5 stopped at tick 3871208750. Duration: 15000
3871565625: global: Timer #2 started at tick 3871565625
3871641875: global: Timer #2 stopped at tick 3871641875. Duration: 76250
3915610875: system.acctest.elem_matrix0_dma: SRC:0x0000000082290bc0, DST:0x0000000024000020, LEN:65536
3920568750: system.acctest.isp0_dma: SRC:0x000000008210e780, DST:0x0000000027000020, LEN:16900
3921054375: global: Number of accelerators running = 2
3924152750: system.acctest.isp0_dma: Transfer completed in 3.584 us
3924784375: global: Timer #0 started at tick 3924784375
3926258750: global: Timer #1 started at tick 3926258750
3927051875: global: Timer #1 stopped at tick 3927051875. Duration: 793125
3928166875: system.acctest.elem_matrix0_dma: Transfer completed in 12.556 us
3929227500: global: Timer #0 stopped at tick 3929227500. Duration: 4443125
3929290000: global: Number of accelerators running = 2
3929545000: global: Timer #0 started at tick 3929545000
3930091250: global: Timer #1 started at tick 3930091250
3930615000: global: Timer #1 stopped at tick 3930615000. Duration: 523750
3944842375: system.acctest.elem_matrix0_dma: SRC:0x0000000082190a00, DST:0x0000000024010020, LEN:65536
3945177500: global: Timer #0 stopped at tick 3945177500. Duration: 15632500
3945193750: global: Number of accelerators running = 2
3956847375: system.acctest.elem_matrix0_dma: Transfer completed in 12.005 us
3956952500: global: Timer #0 started at tick 3956952500
3957491875: global: Timer #1 started at tick 3957491875
3957895625: global: Timer #1 stopped at tick 3957895625. Duration: 403750
3959511875: global: Timer #0 stopped at tick 3959511875. Duration: 2559375
3959528125: global: Number of accelerators running = 2
********************************************************************************
system.acctest.isp0.compute
   ========= Performance Analysis =============
   Setup Time:                      0.151412seconds
   Simulation Time:                 466.956seconds
   System Clock:                    1GHz
   Transistor Latency:              1ns
   Runtime:                         34882 cycles
   Runtime:                         34.882 us
   Stalls:                          1 cycles
   Executed Nodes:                  34880 cycles

********************************************************************************
   ========= Performance Analysis =================
   Setup Time:                      1.51412e+08ns
   Simulation Time:                 4.66956e+11ns
   System Clock:                    1GHz
   Transistor Latency:              0ns
   Runtime:                         34882 cycles
   Runtime:                         3.4882e-06 seconds
   Stalls:                          1 cycles
       Load Only:                   0 cycles
       Store Only:                  1 cycles
       Compute Only:                0 cycles
       Compute & Store:             0 cycles
       Load & Store:                0 cycles
       Load & Compute:              0 cycles
       Load & Compute & Store:      0 cycles
   Executed Nodes:                  34880 cycles
       Load Only:                   0 cycles
       Store Only:                  1 cycles
       Compute Only:                3453 cycles
       Compute & Store:             19014 cycles
       Load & Store:                0 cycles
       Load & Compute:              2467 cycles
       Load & Compute & Store:      9945 cycles

   ========= Runtime FU's ========= (Max | Avg) ===
   Counter FU's:                      10 | 0.118075
   Integer Add/Sub FU's:              76 | 0.082082
   Integer Mul/Div FU's:              11 | 0.043888
   Integer Shifter FU's:              42 | 0.055974
   Integer Bitwise FU's:               4 | 0.059443
   Floating Point Float Add/Sub:      53 | 0.116839
   Floating Point Double Add/Sub:      0 | 0.000000
   Floating Point Float Mul/Div:      76 | 0.625626
   Floating Point Double Mul/Div:      0 | 0.000000
   0 Cycle Compare FU's:              85 | 0.664984
   GEP Instruction FU's:              33 | 0.117424
   Type Conversion FU's:             110 | 0.379700

   ========= Static FU's ==========================
   Counter FU's:                    0
   Integer Add/Sub FU's:            0
   Integer Mul/Div FU's:            0
   Integer Shifter FU's:            0
   Integer Bitwise FU's:            0
   Floating Point Float Add/Sub:    0
   Floating Point Double Add/Sub:   0
   Floating Point Float Mul/Div:    0
   Floating Point Double Mul/Div:   0
   0 Cycle Compare FU's:            0
   GEP Instruction FU's:            0
   Type Conversion FU's:            0
   Other:                           0

   ========= Pipeline Register Usage =============
   Total Number of Registers:       1620
   Max Register Usage Per Cycle:    151
   Avg Register Usage Per Cycle:    58.744711
   Avg Register Size (Bytes):       5.073357

   ========= Memory Configuration =================
   Cache Bus Ports:                 0
   Shared Cache Size:               0kB
   Local Bus Ports:                 0
   Private SPM Size:                112kB
   Private Read Ports:              0
   Private Write Ports:             0
   Private Read Bus Width:          64
   Private Write Bus Width:         64
       Memory Reads:                0
       Memory Writes:               0
   ========= Power Analysis ======================
   FU Leakage Power:                1.637787 mW 
   FU Dynamic Power:                9.655087 mW 
   FU Total Power:                  11.292874 mW 

   Registers Leakage Power:          0.021654 mW 
   Registers Dynamic Power:          3.085961 mW 
       Register Reads (Bits):        2049133
       Register Writes (Bits):       2049168
   Registers Total Power:            3.107615 mW

   SPM Leakage Power:               0.061081 mW
   SPM Read Dynamic Power:          11.103730 mW
   SPM Write Dynamic Power:         7.385230 mW
   SPM Total Power:                 18.550041 mW

   Cache Leakage Power:             0.000000 mW
   Cache Read Dynamic Power:        0.000000 mW
   Cache Write Dynamic Power:       0.000000 mW
   Cache Total Power:               0.000000 mW

   Accelerator Power:               14.400490 mW
   Accelerator Power (SPM):         32.950531 mW
   Accelerator Power (Cache):       14.400490 mW

   ========= Area Analysis =======================
   FU Area:                         176023.796875 um^2 (0.176024 mm^2)
   Register Area:                   1760.064941 um^2 (0.001760 mm^2)
   SPM Area:                        2165.394891 um^2 (0.002165 mm^2)
   Cache Area:                      0.000000 um^2 (0.000000 mm^2)

   Accelerator Area:                177783.859375 um^2 (0.177784 mm^2)
   Accelerator Area (SPM):          179949.254266 um^2 (0.179949 mm^2)
   Accelerator Area (Cache):        177783.859375 um^2 (0.177784 mm^2)

   ========= SPM Resizing  =======================
   SPM Optimized Leakage Power:     0.005964 mW
   SPM Opt Area:                    422.108128 um^2

3963408125: global: Timer #0 started at tick 3963408125
3963816875: global: Timer #3 started at tick 3963816875
3963911250: global: Timer #4 started at tick 3963911250
3964084375: global: Timer #4 stopped at tick 3964084375. Duration: 173125
3964145625: global: Timer #5 started at tick 3964145625
3964249375: global: Timer #5 stopped at tick 3964249375. Duration: 103750
3964780000: global: Timer #3 stopped at tick 3964780000. Duration: 963125
3965075625: global: Timer #2 started at tick 3965075625
3965707500: global: Timer #2 stopped at tick 3965707500. Duration: 631875
3966492500: global: DAG ID = 1
3966511875: global: Node ID = 0
3966530000: global: Node deadline difference = -229
3966548125: global: Predicted memory time / byte = 7.27596e-05 us/byte
3966610000: global: Predicted memory time = 1.22964 us
3966628125: global: Predicted memory time / byte = 7.27596e-05 us/byte
3966646250: global: Predicted memory time = 3.57628 us
3966664375: global: Predicted memory time / byte = 0.000257337 us/byte
3966682500: global: Predicted memory time = 4.349 us
3966700625: global: Predicted memory time / byte = 0 us/byte
3966763125: global: Predicted memory time = 0 us
3966781250: global: Predicted memory access size = 16900
3966799375: global: Predicted memory access size = 16900
3966817500: global: Predicted memory access size = 49152
3966835625: global: Predicted memory access size = 0
3968018750: system.acctest.grayscale0_dma: SRC:0x0000000027004224, DST:0x0000000025000020, LEN:49152
********************************************************************************
system.acctest.elem_matrix0.compute
   ========= Performance Analysis =============
   Setup Time:                      3.913341seconds
   Simulation Time:                 187.525899seconds
   System Clock:                    1.000000GHz
   Transistor Latency:              1ns
   Runtime:                         10932 cycles
   Runtime:                         10.932000 us
   Stalls:                          0 cycles
   Executed Nodes:                  10931 cycles

********************************************************************************
   ========= Performance Analysis =================
   Setup Time:                      3913340911.000000ns
   Simulation Time:                 187525899114.000000ns
   System Clock:                    1.000000GHz
   Transistor Latency:              0ns
   Runtime:                         10932 cycles
   Runtime:                         0.000001 seconds
   Stalls:                          0 cycles
       Load Only:                   0 cycles
       Store Only:                  0 cycles
       Compute Only:                0 cycles
       Compute & Store:             0 cycles
       Load & Store:                0 cycles
       Load & Compute:              0 cycles
       Load & Compute & Store:      0 cycles
   Executed Nodes:                  10931 cycles
       Load Only:                   0 cycles
       Store Only:                  5 cycles
       Compute Only:                1 cycles
       Compute & Store:             21 cycles
       Load & Store:                0 cycles
       Load & Compute:              7 cycles
       Load & Compute & Store:      10897 cycles

   ========= Runtime FU's ========= (Max | Avg) ===
   Counter FU's:                      32 | 0.046838
   Integer Add/Sub FU's:               0 | 0.000000
   Integer Mul/Div FU's:               0 | 0.000000
   Integer Shifter FU's:               0 | 0.000000
   Integer Bitwise FU's:               1 | 0.000091
   Floating Point Float Add/Sub:      34 | 0.044252
   Floating Point Double Add/Sub:      0 | 0.000000
   Floating Point Float Mul/Div:       0 | 0.000000
   Floating Point Double Mul/Div:      0 | 0.000000
   0 Cycle Compare FU's:             102 | 0.046974
   GEP Instruction FU's:              96 | 0.046835
   Type Conversion FU's:               7 | 0.006782

   ========= Static FU's ==========================
   Counter FU's:                    0
   Integer Add/Sub FU's:            0
   Integer Mul/Div FU's:            0
   Integer Shifter FU's:            0
   Integer Bitwise FU's:            0
   Floating Point Float Add/Sub:    0
   Floating Point Double Add/Sub:   0
   Floating Point Float Mul/Div:    0
   Floating Point Double Mul/Div:   0
   0 Cycle Compare FU's:            0
   GEP Instruction FU's:            0
   Type Conversion FU's:            0
   Other:                           0

   ========= Pipeline Register Usage =============
   Total Number of Registers:       5641
   Max Register Usage Per Cycle:    138
   Avg Register Usage Per Cycle:    12.130992
   Avg Register Size (Bytes):       5.980606

   ========= Memory Configuration =================
   Cache Bus Ports:                 0
   Shared Cache Size:               0kB
   Local Bus Ports:                 0
   Private SPM Size:                256kB
   Private Read Ports:              0
   Private Write Ports:             0
   Private Read Bus Width:          64
   Private Write Bus Width:         64
       Memory Reads:                0
       Memory Writes:               0
   ========= Power Analysis ======================
   FU Leakage Power:                0.519269 mW 
   FU Dynamic Power:                0.154621 mW 
   FU Total Power:                  0.673890 mW 

   Registers Leakage Power:          0.005281 mW 
   Registers Dynamic Power:          0.015326 mW 
       Register Reads (Bits):        132616
       Register Writes (Bits):       133658
   Registers Total Power:            0.020607 mW

   SPM Leakage Power:               0.104100 mW
   SPM Read Dynamic Power:          1.997266 mW
   SPM Write Dynamic Power:         0.953321 mW
   SPM Total Power:                 3.054688 mW

   Cache Leakage Power:             0.000000 mW
   Cache Read Dynamic Power:        0.000000 mW
   Cache Write Dynamic Power:       0.000000 mW
   Cache Total Power:               0.000000 mW

   Accelerator Power:               0.694497 mW
   Accelerator Power (SPM):         3.749184 mW
   Accelerator Power (Cache):       0.694497 mW

   ========= Area Analysis =======================
   FU Area:                         70212.562500 um^2 (0.070213 mm^2)
   Register Area:                   429.271088 um^2 (0.000429 mm^2)
   SPM Area:                        2177.365505 um^2 (0.002177 mm^2)
   Cache Area:                      0.000000 um^2 (0.000000 mm^2)

   Accelerator Area:                70641.835938 um^2 (0.070642 mm^2)
   Accelerator Area (SPM):          72819.201442 um^2 (0.072819 mm^2)
   Accelerator Area (Cache):        70641.835938 um^2 (0.070642 mm^2)

   ========= SPM Resizing  =======================
   SPM Optimized Leakage Power:     0.004248 mW
   SPM Opt Area:                    178.524902 um^2

3972818000: system.acctest.isp0_dma: SRC:0x0000000082018d40, DST:0x0000000027000020, LEN:16900
3973006250: global: Timer #0 stopped at tick 3973006250. Duration: 9598125
3973022500: global: Number of accelerators running = 3
3973224375: global: Timer #0 started at tick 3973224375
3973625625: global: Timer #3 started at tick 3973625625
3973671250: global: Timer #4 started at tick 3973671250
3973725625: global: Timer #4 stopped at tick 3973725625. Duration: 54375
3973741250: global: Timer #5 started at tick 3973741250
3973756250: global: Timer #5 stopped at tick 3973756250. Duration: 15000
3974044375: global: Timer #3 stopped at tick 3974044375. Duration: 418750
3974261875: global: Timer #3 started at tick 3974261875
3974307500: global: Timer #4 started at tick 3974307500
3974353750: global: Timer #4 stopped at tick 3974353750. Duration: 46250
3974365000: global: Timer #5 started at tick 3974365000
3974380000: global: Timer #5 stopped at tick 3974380000. Duration: 15000
3974796250: global: Timer #3 stopped at tick 3974796250. Duration: 534375
3974847500: global: Timer #2 started at tick 3974847500
3974968750: global: Timer #2 stopped at tick 3974968750. Duration: 121250
3975008125: global: Timer #2 started at tick 3975008125
3975202500: global: Timer #2 stopped at tick 3975202500. Duration: 194375
3975310625: global: Timer #4 started at tick 3975310625
3975496250: global: Timer #4 stopped at tick 3975496250. Duration: 185625
3976121000: system.acctest.isp0_dma: Transfer completed in 3.303 us
3977578750: system.acctest.grayscale0_dma: Transfer completed in 9.56 us
3989265875: system.acctest.elem_matrix0_dma: SRC:0x0000000024020020, DST:0x00000000821a0a00, LEN:65536
3989812500: global: Timer #0 stopped at tick 3989812500. Duration: 16588125
3989828750: global: Number of accelerators running = 3
3989980625: global: Timer #0 started at tick 3989980625
3990488125: global: Timer #1 started at tick 3990488125
3990816875: global: Timer #1 stopped at tick 3990816875. Duration: 328750
3992106250: global: Timer #0 stopped at tick 3992106250. Duration: 2125625
3992122500: global: Number of accelerators running = 3
3992376250: global: Timer #0 started at tick 3992376250
3992917500: global: Timer #1 started at tick 3992917500
3993398125: global: Timer #1 stopped at tick 3993398125. Duration: 480625
3994833125: global: Timer #0 stopped at tick 3994833125. Duration: 2456875
3994891875: global: Number of accelerators running = 3
3995652875: system.acctest.elem_matrix0_dma: Transfer completed in 6.387 us
3995782500: global: Timer #0 started at tick 3995782500
3996266250: global: Timer #1 started at tick 3996266250
3996897500: global: Timer #1 stopped at tick 3996897500. Duration: 631250
3997352500: global: DAG ID = 2
3997371875: global: Node ID = 0
3997440000: global: Node deadline difference = -2224
3997500000: global: Predicted memory time / byte = 7.27596e-05 us/byte
3997518125: global: Predicted memory time = 9.53674 us
3997538125: global: Predicted memory time / byte = 7.27596e-05 us/byte
3997556250: global: Predicted memory time = 4.76837 us
3997574375: global: Predicted memory time / byte = 0.000198318 us/byte
3997592500: global: Predicted memory time = 25.994 us
3997610625: global: Predicted memory time / byte = 9.95789e-05 us/byte
3997628750: global: Predicted memory time = 6.526 us
3997648750: global: Predicted memory access size = 131072
3997666875: global: Predicted memory access size = 131072
3997685000: global: Predicted memory access size = 65536
3997703125: global: Predicted memory access size = 65536
********************************************************************************
system.acctest.grayscale0.compute
   ========= Performance Analysis =============
   Setup Time:                      0.011428seconds
   Simulation Time:                 316.896572seconds
   System Clock:                    1.000000GHz
   Transistor Latency:              1ns
   Runtime:                         10263 cycles
   Runtime:                         10.263000 us
   Stalls:                          1 cycles
   Executed Nodes:                  10261 cycles

********************************************************************************
   ========= Performance Analysis =================
   Setup Time:                      11427960.000000ns
   Simulation Time:                 316896571582.000000ns
   System Clock:                    1.000000GHz
   Transistor Latency:              0ns
   Runtime:                         10263 cycles
   Runtime:                         0.000001 seconds
   Stalls:                          1 cycles
       Load Only:                   0 cycles
       Store Only:                  1 cycles
       Compute Only:                0 cycles
       Compute & Store:             0 cycles
       Load & Store:                0 cycles
       Load & Compute:              0 cycles
       Load & Compute & Store:      0 cycles
   Executed Nodes:                  10261 cycles
       Load Only:                   0 cycles
       Store Only:                  1 cycles
       Compute Only:                88 cycles
       Compute & Store:             344 cycles
       Load & Store:                0 cycles
       Load & Compute:              1981 cycles
       Load & Compute & Store:      7847 cycles

   ========= Runtime FU's ========= (Max | Avg) ===
   Counter FU's:                      24 | 0.199556
   Integer Add/Sub FU's:               0 | 0.000000
   Integer Mul/Div FU's:               8 | 0.199552
   Integer Shifter FU's:               0 | 0.000000
   Integer Bitwise FU's:               1 | 0.000097
   Floating Point Float Add/Sub:      49 | 0.114264
   Floating Point Double Add/Sub:      0 | 0.000000
   Floating Point Float Mul/Div:      42 | 0.114129
   Floating Point Double Mul/Div:      0 | 0.000000
   0 Cycle Compare FU's:               9 | 0.066626
   GEP Instruction FU's:              36 | 0.177452
   Type Conversion FU's:              76 | 0.401969

   ========= Static FU's ==========================
   Counter FU's:                    0
   Integer Add/Sub FU's:            0
   Integer Mul/Div FU's:            0
   Integer Shifter FU's:            0
   Integer Bitwise FU's:            0
   Floating Point Float Add/Sub:    0
   Floating Point Double Add/Sub:   0
   Floating Point Float Mul/Div:    0
   Floating Point Double Mul/Div:   0
   0 Cycle Compare FU's:            0
   GEP Instruction FU's:            0
   Type Conversion FU's:            0
   Other:                           0

   ========= Pipeline Register Usage =============
   Total Number of Registers:       235
   Max Register Usage Per Cycle:    90
   Avg Register Usage Per Cycle:    33.924291
   Avg Register Size (Bytes):       5.841147

   ========= Memory Configuration =================
   Cache Bus Ports:                 0
   Shared Cache Size:               0kB
   Local Bus Ports:                 0
   Private SPM Size:                176kB
   Private Read Ports:              0
   Private Write Ports:             0
   Private Read Bus Width:          64
   Private Write Bus Width:         64
       Memory Reads:                0
       Memory Writes:               0
   ========= Power Analysis ======================
   FU Leakage Power:                1.178269 mW 
   FU Dynamic Power:                0.617392 mW 
   FU Total Power:                  1.795662 mW 

   Registers Leakage Power:          0.014185 mW 
   Registers Dynamic Power:          0.101057 mW 
       Register Reads (Bits):        348165
       Register Writes (Bits):       348168
   Registers Total Power:            0.115242 mW

   SPM Leakage Power:               0.089881 mW
   SPM Read Dynamic Power:          6.997296 mW
   SPM Write Dynamic Power:         2.062375 mW
   SPM Total Power:                 9.149552 mW

   Cache Leakage Power:             0.000000 mW
   Cache Read Dynamic Power:        0.000000 mW
   Cache Write Dynamic Power:       0.000000 mW
   Cache Total Power:               0.000000 mW

   Accelerator Power:               1.910904 mW
   Accelerator Power (SPM):         11.060456 mW
   Accelerator Power (Cache):       1.910904 mW

   ========= Area Analysis =======================
   FU Area:                         143348.187500 um^2 (0.143348 mm^2)
   Register Area:                   1152.968140 um^2 (0.001153 mm^2)
   SPM Area:                        3573.642862 um^2 (0.003574 mm^2)
   Cache Area:                      0.000000 um^2 (0.000000 mm^2)

   Accelerator Area:                144501.156250 um^2 (0.144501 mm^2)
   Accelerator Area (SPM):          148074.799112 um^2 (0.148075 mm^2)
   Accelerator Area (Cache):        144501.156250 um^2 (0.144501 mm^2)

   ========= SPM Resizing  =======================
   SPM Optimized Leakage Power:     0.003633 mW
   SPM Opt Area:                    364.024374 um^2

4011353750: system.acctest.elem_matrix0_dma: SRC:0x0000000082150880, DST:0x0000000024000020, LEN:65536
4011588125: global: Timer #0 stopped at tick 4011588125. Duration: 15805625
4011604375: global: Number of accelerators running = 3
4011931250: global: Timer #0 started at tick 4011931250
4012358125: global: Timer #3 started at tick 4012358125
4012391250: global: Timer #4 started at tick 4012391250
4012518750: global: Timer #4 stopped at tick 4012518750. Duration: 127500
4012530000: global: Timer #5 started at tick 4012530000
4012545000: global: Timer #5 stopped at tick 4012545000. Duration: 15000
4013043125: global: Timer #3 stopped at tick 4013043125. Duration: 685000
4013536875: global: Timer #2 started at tick 4013536875
4013605000: global: Timer #2 stopped at tick 4013605000. Duration: 68125
4023378750: system.acctest.elem_matrix0_dma: Transfer completed in 12.025 us
********************************************************************************
system.acctest.isp0.compute
   ========= Performance Analysis =============
   Setup Time:                      0.629749seconds
   Simulation Time:                 693.817314seconds
   System Clock:                    1.000000GHz
   Transistor Latency:              1ns
   Runtime:                         34882 cycles
   Runtime:                         34.882000 us
   Stalls:                          1 cycles
   Executed Nodes:                  34880 cycles

********************************************************************************
   ========= Performance Analysis =================
   Setup Time:                      629748732.000000ns
   Simulation Time:                 693817314134.000000ns
   System Clock:                    1.000000GHz
   Transistor Latency:              0ns
   Runtime:                         34882 cycles
   Runtime:                         0.000003 seconds
   Stalls:                          1 cycles
       Load Only:                   0 cycles
       Store Only:                  1 cycles
       Compute Only:                0 cycles
       Compute & Store:             0 cycles
       Load & Store:                0 cycles
       Load & Compute:              0 cycles
       Load & Compute & Store:      0 cycles
   Executed Nodes:                  34880 cycles
       Load Only:                   0 cycles
       Store Only:                  1 cycles
       Compute Only:                3453 cycles
       Compute & Store:             19014 cycles
       Load & Store:                0 cycles
       Load & Compute:              2467 cycles
       Load & Compute & Store:      9945 cycles

   ========= Runtime FU's ========= (Max | Avg) ===
   Counter FU's:                      10 | 0.118075
   Integer Add/Sub FU's:              76 | 0.082082
   Integer Mul/Div FU's:              11 | 0.043888
   Integer Shifter FU's:              42 | 0.055974
   Integer Bitwise FU's:               4 | 0.059443
   Floating Point Float Add/Sub:      53 | 0.116839
   Floating Point Double Add/Sub:      0 | 0.000000
   Floating Point Float Mul/Div:      76 | 0.625626
   Floating Point Double Mul/Div:      0 | 0.000000
   0 Cycle Compare FU's:              85 | 0.664984
   GEP Instruction FU's:              33 | 0.117424
   Type Conversion FU's:             110 | 0.379700

   ========= Static FU's ==========================
   Counter FU's:                    0
   Integer Add/Sub FU's:            0
   Integer Mul/Div FU's:            0
   Integer Shifter FU's:            0
   Integer Bitwise FU's:            0
   Floating Point Float Add/Sub:    0
   Floating Point Double Add/Sub:   0
   Floating Point Float Mul/Div:    0
   Floating Point Double Mul/Div:   0
   0 Cycle Compare FU's:            0
   GEP Instruction FU's:            0
   Type Conversion FU's:            0
   Other:                           0

   ========= Pipeline Register Usage =============
   Total Number of Registers:       1620
   Max Register Usage Per Cycle:    151
   Avg Register Usage Per Cycle:    58.744711
   Avg Register Size (Bytes):       5.073357

   ========= Memory Configuration =================
   Cache Bus Ports:                 0
   Shared Cache Size:               0kB
   Local Bus Ports:                 0
   Private SPM Size:                112kB
   Private Read Ports:              0
   Private Write Ports:             0
   Private Read Bus Width:          64
   Private Write Bus Width:         64
       Memory Reads:                0
       Memory Writes:               0
   ========= Power Analysis ======================
   FU Leakage Power:                1.637787 mW 
   FU Dynamic Power:                9.655087 mW 
   FU Total Power:                  11.292874 mW 

   Registers Leakage Power:          0.021654 mW 
   Registers Dynamic Power:          3.085961 mW 
       Register Reads (Bits):        2049133
       Register Writes (Bits):       2049168
   Registers Total Power:            3.107615 mW

   SPM Leakage Power:               0.061081 mW
   SPM Read Dynamic Power:          15.102444 mW
   SPM Write Dynamic Power:         10.618341 mW
   SPM Total Power:                 25.781867 mW

   Cache Leakage Power:             0.000000 mW
   Cache Read Dynamic Power:        0.000000 mW
   Cache Write Dynamic Power:       0.000000 mW
   Cache Total Power:               0.000000 mW

   Accelerator Power:               14.400490 mW
   Accelerator Power (SPM):         40.182357 mW
   Accelerator Power (Cache):       14.400490 mW

   ========= Area Analysis =======================
   FU Area:                         176023.796875 um^2 (0.176024 mm^2)
   Register Area:                   1760.064941 um^2 (0.001760 mm^2)
   SPM Area:                        2165.394891 um^2 (0.002165 mm^2)
   Cache Area:                      0.000000 um^2 (0.000000 mm^2)

   Accelerator Area:                177783.859375 um^2 (0.177784 mm^2)
   Accelerator Area (SPM):          179949.254266 um^2 (0.179949 mm^2)
   Accelerator Area (Cache):        177783.859375 um^2 (0.177784 mm^2)

   ========= SPM Resizing  =======================
   SPM Optimized Leakage Power:     0.005964 mW
   SPM Opt Area:                    422.108128 um^2

4027005875: system.acctest.grayscale0_dma: SRC:0x000000002500c020, DST:0x000000008211eb40, LEN:65536
4028604000: system.acctest.convolution0_dma: SRC:0x000000002500c020, DST:0x0000000022000020, LEN:65536
4029066875: global: Timer #0 stopped at tick 4029066875. Duration: 17135625
4029083125: global: Number of accelerators running = 4
4029284375: global: Timer #0 started at tick 4029284375
4029864375: global: Timer #1 started at tick 4029864375
4030253125: global: Timer #1 stopped at tick 4030253125. Duration: 388750
4032062500: global: Timer #0 stopped at tick 4032062500. Duration: 2778125
4032078750: global: Number of accelerators running = 4
4032313750: global: Timer #0 started at tick 4032313750
4033065625: global: Timer #3 started at tick 4033065625
4033146875: global: Timer #4 started at tick 4033146875
4033181875: global: Timer #4 stopped at tick 4033181875. Duration: 35000
4033193125: global: Timer #5 started at tick 4033193125
4033208125: global: Timer #5 stopped at tick 4033208125. Duration: 15000
4033434375: global: Timer #3 stopped at tick 4033434375. Duration: 368750
4033481250: global: Timer #2 started at tick 4033481250
4033556250: global: Timer #2 stopped at tick 4033556250. Duration: 75000
4033578125: global: Timer #4 started at tick 4033578125
4033608125: global: Timer #4 stopped at tick 4033608125. Duration: 30000
4038546875: system.acctest.grayscale0_dma: Transfer completed in 11.541 us
4042069000: system.acctest.convolution0_dma: Transfer completed in 13.465 us
********************************************************************************
system.acctest.elem_matrix0.compute
   ========= Performance Analysis =============
   Setup Time:                      7.578852seconds
   Simulation Time:                 123.152712seconds
   System Clock:                    1.000000GHz
   Transistor Latency:              1ns
   Runtime:                         10932 cycles
   Runtime:                         10.932000 us
   Stalls:                          1 cycles
   Executed Nodes:                  10930 cycles

********************************************************************************
   ========= Performance Analysis =================
   Setup Time:                      7578852153.000000ns
   Simulation Time:                 123152711812.000000ns
   System Clock:                    1.000000GHz
   Transistor Latency:              0ns
   Runtime:                         10932 cycles
   Runtime:                         0.000001 seconds
   Stalls:                          1 cycles
       Load Only:                   0 cycles
       Store Only:                  1 cycles
       Compute Only:                0 cycles
       Compute & Store:             0 cycles
       Load & Store:                0 cycles
       Load & Compute:              0 cycles
       Load & Compute & Store:      0 cycles
   Executed Nodes:                  10930 cycles
       Load Only:                   0 cycles
       Store Only:                  4 cycles
       Compute Only:                1 cycles
       Compute & Store:             21 cycles
       Load & Store:                0 cycles
       Load & Compute:              6 cycles
       Load & Compute & Store:      10898 cycles

   ========= Runtime FU's ========= (Max | Avg) ===
   Counter FU's:                      32 | 0.046838
   Integer Add/Sub FU's:               0 | 0.000000
   Integer Mul/Div FU's:               0 | 0.000000
   Integer Shifter FU's:               0 | 0.000000
   Integer Bitwise FU's:               1 | 0.000091
   Floating Point Float Add/Sub:       0 | 0.000000
   Floating Point Double Add/Sub:      0 | 0.000000
   Floating Point Float Mul/Div:      34 | 0.044252
   Floating Point Double Mul/Div:      0 | 0.000000
   0 Cycle Compare FU's:             102 | 0.046945
   GEP Instruction FU's:              96 | 0.046835
   Type Conversion FU's:               7 | 0.006782

   ========= Static FU's ==========================
   Counter FU's:                    0
   Integer Add/Sub FU's:            0
   Integer Mul/Div FU's:            0
   Integer Shifter FU's:            0
   Integer Bitwise FU's:            0
   Floating Point Float Add/Sub:    0
   Floating Point Double Add/Sub:   0
   Floating Point Float Mul/Div:    0
   Floating Point Double Mul/Div:   0
   0 Cycle Compare FU's:            0
   GEP Instruction FU's:            0
   Type Conversion FU's:            0
   Other:                           0

   ========= Pipeline Register Usage =============
   Total Number of Registers:       5641
   Max Register Usage Per Cycle:    137
   Avg Register Usage Per Cycle:    12.130992
   Avg Register Size (Bytes):       5.980606

   ========= Memory Configuration =================
   Cache Bus Ports:                 0
   Shared Cache Size:               0kB
   Local Bus Ports:                 0
   Private SPM Size:                256kB
   Private Read Ports:              0
   Private Write Ports:             0
   Private Read Bus Width:          64
   Private Write Bus Width:         64
       Memory Reads:                0
       Memory Writes:               0
   ========= Power Analysis ======================
   FU Leakage Power:                0.045377 mW 
   FU Dynamic Power:                0.142576 mW 
   FU Total Power:                  0.187953 mW 

   Registers Leakage Power:          0.005281 mW 
   Registers Dynamic Power:          0.015326 mW 
       Register Reads (Bits):        132616
       Register Writes (Bits):       133658
   Registers Total Power:            0.020607 mW

   SPM Leakage Power:               0.104100 mW
   SPM Read Dynamic Power:          2.785289 mW
   SPM Write Dynamic Power:         2.044305 mW
   SPM Total Power:                 4.933694 mW

   Cache Leakage Power:             0.000000 mW
   Cache Read Dynamic Power:        0.000000 mW
   Cache Write Dynamic Power:       0.000000 mW
   Cache Total Power:               0.000000 mW

   Accelerator Power:               0.208559 mW
   Accelerator Power (SPM):         5.142254 mW
   Accelerator Power (Cache):       0.208559 mW

   ========= Area Analysis =======================
   FU Area:                         5472.068359 um^2 (0.005472 mm^2)
   Register Area:                   429.271088 um^2 (0.000429 mm^2)
   SPM Area:                        2177.365505 um^2 (0.002177 mm^2)
   Cache Area:                      0.000000 um^2 (0.000000 mm^2)

   Accelerator Area:                5901.339355 um^2 (0.005901 mm^2)
   Accelerator Area (SPM):          8078.704860 um^2 (0.008079 mm^2)
   Accelerator Area (Cache):        5901.339355 um^2 (0.005901 mm^2)

   ========= SPM Resizing  =======================
   SPM Optimized Leakage Power:     0.004248 mW
   SPM Opt Area:                    178.524902 um^2

4044361625: system.acctest.isp0_dma: SRC:0x0000000027010224, DST:0x000000008201cf80, LEN:49152
4044759375: global: Timer #0 stopped at tick 4044759375. Duration: 12445625
4044775625: global: Number of accelerators running = 4
4044891250: global: Timer #0 started at tick 4044891250
4045223125: global: Timer #1 started at tick 4045223125
4045419375: global: Timer #1 stopped at tick 4045419375. Duration: 196250
4046053125: global: DAG ID = 1
4046066875: global: Node ID = 1
4046088125: global: Node deadline difference = -186
4046100625: global: Predicted memory time / byte = 0.000205059 us/byte
4046113125: global: Predicted memory time = 10.0791 us
4046166875: global: Predicted memory time / byte = 0.000205059 us/byte
4046179375: global: Predicted memory time = 13.4388 us
4046191875: global: Predicted memory time / byte = 0.0004953 us/byte
4046204375: global: Predicted memory time = 24.345 us
4046216875: global: Predicted memory time / byte = 0.000271622 us/byte
4046229375: global: Predicted memory time = 17.801 us
4046241875: global: Predicted memory access size = 49152
4046254375: global: Predicted memory access size = 49152
4046266875: global: Predicted memory access size = 65536
4046279375: global: Predicted memory access size = 65536
4046448125: global: Timer #0 stopped at tick 4046448125. Duration: 1556875
4046464375: global: Number of accelerators running = 3
4046589375: global: Timer #0 started at tick 4046589375
4047082500: global: Timer #1 started at tick 4047082500
4047433750: global: Timer #1 stopped at tick 4047433750. Duration: 351250
4048963750: system.acctest.convolution0_dma: SRC:0x00000000820ce0c0, DST:0x0000000022030020, LEN:100
4049296875: global: Timer #0 stopped at tick 4049296875. Duration: 2707500
4049313125: global: Number of accelerators running = 3
4049555750: system.acctest.convolution0_dma: Transfer completed in 0.592 us
4049568750: global: Timer #0 started at tick 4049568750
4049743125: global: Timer #3 started at tick 4049743125
4049815625: global: Timer #4 started at tick 4049815625
4049858750: global: Timer #4 stopped at tick 4049858750. Duration: 43125
4049870000: global: Timer #5 started at tick 4049870000
4049876625: system.acctest.isp0_dma: Transfer completed in 5.515 us
4049885000: global: Timer #5 stopped at tick 4049885000. Duration: 15000
4050236875: global: Timer #3 stopped at tick 4050236875. Duration: 493750
4050283750: global: Timer #2 started at tick 4050283750
4050403125: global: Timer #2 stopped at tick 4050403125. Duration: 119375
4050661250: global: DAG ID = 2
4050675000: global: Node ID = 5
4050688125: global: Node deadline difference = -2228
4050700625: global: Predicted memory time / byte = 0.000205059 us/byte
4050713125: global: Predicted memory time = 26.8775 us
4050725625: global: Predicted memory time / byte = 0.000205059 us/byte
4050738125: global: Predicted memory time = 13.4388 us
4050750625: global: Predicted memory time / byte = 0.000273712 us/byte
4050763125: global: Predicted memory time = 17.938 us
4050775625: global: Predicted memory time / byte = 0 us/byte
4050788125: global: Predicted memory time = 0 us
4050800625: global: Predicted memory access size = 131072
4050813125: global: Predicted memory access size = 65536
4050825625: global: Predicted memory access size = 65536
4050838125: global: Predicted memory access size = 0
4064313750: system.acctest.elem_matrix0_dma: SRC:0x0000000082160880, DST:0x0000000024000020, LEN:65536
4064559375: global: Timer #0 stopped at tick 4064559375. Duration: 14990625
4064575625: global: Number of accelerators running = 3
4064779375: global: Timer #0 started at tick 4064779375
4066710625: global: Timer #0 stopped at tick 4066710625. Duration: 1931250
4066726875: global: Number of accelerators running = 3
4066848750: global: Timer #0 started at tick 4066848750
4067166875: global: Timer #1 started at tick 4067166875
4067601875: global: Timer #1 stopped at tick 4067601875. Duration: 435000
4067876250: global: DAG ID = 0
4067890000: global: Node ID = 0
4067911250: global: Node deadline difference = -13397
4067923750: global: Predicted memory time / byte = 7.27596e-05 us/byte
4067936250: global: Predicted memory time = 1.22964 us
4067948750: global: Predicted memory time / byte = 7.27596e-05 us/byte
4067961250: global: Predicted memory time = 3.57628 us
4067973750: global: Predicted memory time / byte = 0.00101574 us/byte
4067986250: global: Predicted memory time = 17.166 us
4067998750: global: Predicted memory time / byte = 0.000455526 us/byte
4068011250: global: Predicted memory time = 22.39 us
4068023750: global: Predicted memory access size = 16900
4068036250: global: Predicted memory access size = 16900
4068048750: global: Predicted memory access size = 49152
4068061250: global: Predicted memory access size = 49152
4076511750: system.acctest.elem_matrix0_dma: Transfer completed in 12.198 us
4078244500: system.acctest.grayscale0_dma: SRC:0x000000008201cf80, DST:0x0000000025000020, LEN:49152
4078501875: global: Timer #0 stopped at tick 4078501875. Duration: 11653125
4078518125: global: Number of accelerators running = 3
4078717500: global: Timer #0 started at tick 4078717500
4079182500: global: Timer #1 started at tick 4079182500
4079571875: global: Timer #1 stopped at tick 4079571875. Duration: 389375
4081160000: global: Timer #0 stopped at tick 4081160000. Duration: 2442500
4081176250: global: Number of accelerators running = 3
4087130500: system.acctest.grayscale0_dma: Transfer completed in 8.886 us
4087222500: global: Timer #0 started at tick 4087222500
4087671875: global: Timer #1 started at tick 4087671875
4087931875: global: Timer #1 stopped at tick 4087931875. Duration: 260000
4089009375: global: Timer #0 stopped at tick 4089009375. Duration: 1786875
4089111875: global: Number of accelerators running = 3
********************************************************************************
system.acctest.elem_matrix0.compute
   ========= Performance Analysis =============
   Setup Time:                      5.835987seconds
   Simulation Time:                 159.001996seconds
   System Clock:                    1.000000GHz
   Transistor Latency:              1ns
   Runtime:                         10932 cycles
   Runtime:                         10.932000 us
   Stalls:                          0 cycles
   Executed Nodes:                  10931 cycles

********************************************************************************
   ========= Performance Analysis =================
   Setup Time:                      5835986701.000000ns
   Simulation Time:                 159001996445.000000ns
   System Clock:                    1.000000GHz
   Transistor Latency:              0ns
   Runtime:                         10932 cycles
   Runtime:                         0.000001 seconds
   Stalls:                          0 cycles
       Load Only:                   0 cycles
       Store Only:                  0 cycles
       Compute Only:                0 cycles
       Compute & Store:             0 cycles
       Load & Store:                0 cycles
       Load & Compute:              0 cycles
       Load & Compute & Store:      0 cycles
   Executed Nodes:                  10931 cycles
       Load Only:                   0 cycles
       Store Only:                  5 cycles
       Compute Only:                1 cycles
       Compute & Store:             21 cycles
       Load & Store:                0 cycles
       Load & Compute:              7 cycles
       Load & Compute & Store:      10897 cycles

   ========= Runtime FU's ========= (Max | Avg) ===
   Counter FU's:                      32 | 0.046838
   Integer Add/Sub FU's:               0 | 0.000000
   Integer Mul/Div FU's:               0 | 0.000000
   Integer Shifter FU's:               0 | 0.000000
   Integer Bitwise FU's:               1 | 0.000091
   Floating Point Float Add/Sub:      34 | 0.044252
   Floating Point Double Add/Sub:      0 | 0.000000
   Floating Point Float Mul/Div:       0 | 0.000000
   Floating Point Double Mul/Div:      0 | 0.000000
   0 Cycle Compare FU's:             102 | 0.046974
   GEP Instruction FU's:              96 | 0.046835
   Type Conversion FU's:               7 | 0.006782

   ========= Static FU's ==========================
   Counter FU's:                    0
   Integer Add/Sub FU's:            0
   Integer Mul/Div FU's:            0
   Integer Shifter FU's:            0
   Integer Bitwise FU's:            0
   Floating Point Float Add/Sub:    0
   Floating Point Double Add/Sub:   0
   Floating Point Float Mul/Div:    0
   Floating Point Double Mul/Div:   0
   0 Cycle Compare FU's:            0
   GEP Instruction FU's:            0
   Type Conversion FU's:            0
   Other:                           0

   ========= Pipeline Register Usage =============
   Total Number of Registers:       5641
   Max Register Usage Per Cycle:    138
   Avg Register Usage Per Cycle:    12.130992
   Avg Register Size (Bytes):       5.980606

   ========= Memory Configuration =================
   Cache Bus Ports:                 0
   Shared Cache Size:               0kB
   Local Bus Ports:                 0
   Private SPM Size:                256kB
   Private Read Ports:              0
   Private Write Ports:             0
   Private Read Bus Width:          64
   Private Write Bus Width:         64
       Memory Reads:                0
       Memory Writes:               0
   ========= Power Analysis ======================
   FU Leakage Power:                0.519269 mW 
   FU Dynamic Power:                0.154621 mW 
   FU Total Power:                  0.673890 mW 

   Registers Leakage Power:          0.005281 mW 
   Registers Dynamic Power:          0.015326 mW 
       Register Reads (Bits):        132616
       Register Writes (Bits):       133658
   Registers Total Power:            0.020607 mW

   SPM Leakage Power:               0.104100 mW
   SPM Read Dynamic Power:          3.776796 mW
   SPM Write Dynamic Power:         2.457440 mW
   SPM Total Power:                 6.338336 mW

   Cache Leakage Power:             0.000000 mW
   Cache Read Dynamic Power:        0.000000 mW
   Cache Write Dynamic Power:       0.000000 mW
   Cache Total Power:               0.000000 mW

   Accelerator Power:               0.694497 mW
   Accelerator Power (SPM):         7.032833 mW
   Accelerator Power (Cache):       0.694497 mW

   ========= Area Analysis =======================
   FU Area:                         70212.562500 um^2 (0.070213 mm^2)
   Register Area:                   429.271088 um^2 (0.000429 mm^2)
   SPM Area:                        2177.365505 um^2 (0.002177 mm^2)
   Cache Area:                      0.000000 um^2 (0.000000 mm^2)

   Accelerator Area:                70641.835938 um^2 (0.070642 mm^2)
   Accelerator Area (SPM):          72819.201442 um^2 (0.072819 mm^2)
   Accelerator Area (Cache):        70641.835938 um^2 (0.070642 mm^2)

   ========= SPM Resizing  =======================
   SPM Optimized Leakage Power:     0.004248 mW
   SPM Opt Area:                    178.524902 um^2

4091949375: global: Timer #0 started at tick 4091949375
4092236875: global: Timer #3 started at tick 4092236875
4092256875: global: Timer #4 started at tick 4092256875
4092351875: global: Timer #4 stopped at tick 4092351875. Duration: 95000
4092363125: global: Timer #5 started at tick 4092363125
4092378125: global: Timer #5 stopped at tick 4092378125. Duration: 15000
4092725000: global: Timer #3 stopped at tick 4092725000. Duration: 488125
4092771875: global: Timer #2 started at tick 4092771875
4092868750: global: Timer #2 stopped at tick 4092868750. Duration: 96875
4093118125: global: DAG ID = 2
4093131875: global: Node ID = 6
4093145000: global: Node deadline difference = -2242
4093157500: global: Predicted memory time / byte = 0.000277345 us/byte
4093170000: global: Predicted memory time = 36.3522 us
4093182500: global: Predicted memory time / byte = 0.000277345 us/byte
4093195000: global: Predicted memory time = 18.1761 us
4093207500: global: Predicted memory time / byte = 0.000219879 us/byte
4093220000: global: Predicted memory time = 14.41 us
4093232500: global: Predicted memory time / byte = 0 us/byte
4093245000: global: Predicted memory time = 0 us
4093257500: global: Predicted memory access size = 131072
4093270000: global: Predicted memory access size = 65536
4093282500: global: Predicted memory access size = 65536
4093295000: global: Predicted memory access size = 0
4094683125: global: Timer #0 stopped at tick 4094683125. Duration: 2733750
4094699375: global: Number of accelerators running = 3
********************************************************************************
system.acctest.grayscale0.compute
   ========= Performance Analysis =============
   Setup Time:                      0.011257seconds
   Simulation Time:                 227.308802seconds
   System Clock:                    1.000000GHz
   Transistor Latency:              1ns
   Runtime:                         10263 cycles
   Runtime:                         10.263000 us
   Stalls:                          1 cycles
   Executed Nodes:                  10261 cycles

********************************************************************************
   ========= Performance Analysis =================
   Setup Time:                      11256940.000000ns
   Simulation Time:                 227308801674.000000ns
   System Clock:                    1.000000GHz
   Transistor Latency:              0ns
   Runtime:                         10263 cycles
   Runtime:                         0.000001 seconds
   Stalls:                          1 cycles
       Load Only:                   0 cycles
       Store Only:                  1 cycles
       Compute Only:                0 cycles
       Compute & Store:             0 cycles
       Load & Store:                0 cycles
       Load & Compute:              0 cycles
       Load & Compute & Store:      0 cycles
   Executed Nodes:                  10261 cycles
       Load Only:                   0 cycles
       Store Only:                  1 cycles
       Compute Only:                88 cycles
       Compute & Store:             344 cycles
       Load & Store:                0 cycles
       Load & Compute:              1981 cycles
       Load & Compute & Store:      7847 cycles

   ========= Runtime FU's ========= (Max | Avg) ===
   Counter FU's:                      24 | 0.199556
   Integer Add/Sub FU's:               0 | 0.000000
   Integer Mul/Div FU's:               8 | 0.199552
   Integer Shifter FU's:               0 | 0.000000
   Integer Bitwise FU's:               1 | 0.000097
   Floating Point Float Add/Sub:      49 | 0.114264
   Floating Point Double Add/Sub:      0 | 0.000000
   Floating Point Float Mul/Div:      42 | 0.114129
   Floating Point Double Mul/Div:      0 | 0.000000
   0 Cycle Compare FU's:               9 | 0.066626
   GEP Instruction FU's:              36 | 0.177452
   Type Conversion FU's:              76 | 0.401969

   ========= Static FU's ==========================
   Counter FU's:                    0
   Integer Add/Sub FU's:            0
   Integer Mul/Div FU's:            0
   Integer Shifter FU's:            0
   Integer Bitwise FU's:            0
   Floating Point Float Add/Sub:    0
   Floating Point Double Add/Sub:   0
   Floating Point Float Mul/Div:    0
   Floating Point Double Mul/Div:   0
   0 Cycle Compare FU's:            0
   GEP Instruction FU's:            0
   Type Conversion FU's:            0
   Other:                           0

   ========= Pipeline Register Usage =============
   Total Number of Registers:       235
   Max Register Usage Per Cycle:    90
   Avg Register Usage Per Cycle:    33.924291
   Avg Register Size (Bytes):       5.841147

   ========= Memory Configuration =================
   Cache Bus Ports:                 0
   Shared Cache Size:               0kB
   Local Bus Ports:                 0
   Private SPM Size:                176kB
   Private Read Ports:              0
   Private Write Ports:             0
   Private Read Bus Width:          64
   Private Write Bus Width:         64
       Memory Reads:                0
       Memory Writes:               0
   ========= Power Analysis ======================
   FU Leakage Power:                1.178269 mW 
   FU Dynamic Power:                0.617392 mW 
   FU Total Power:                  1.795662 mW 

   Registers Leakage Power:          0.014185 mW 
   Registers Dynamic Power:          0.101057 mW 
       Register Reads (Bits):        348165
       Register Writes (Bits):       348168
   Registers Total Power:            0.115242 mW

   SPM Leakage Power:               0.089881 mW
   SPM Read Dynamic Power:          10.232207 mW
   SPM Write Dynamic Power:         5.980668 mW
   SPM Total Power:                 16.302756 mW

   Cache Leakage Power:             0.000000 mW
   Cache Read Dynamic Power:        0.000000 mW
   Cache Write Dynamic Power:       0.000000 mW
   Cache Total Power:               0.000000 mW

   Accelerator Power:               1.910904 mW
   Accelerator Power (SPM):         18.213660 mW
   Accelerator Power (Cache):       1.910904 mW

   ========= Area Analysis =======================
   FU Area:                         143348.187500 um^2 (0.143348 mm^2)
   Register Area:                   1152.968140 um^2 (0.001153 mm^2)
   SPM Area:                        3573.642862 um^2 (0.003574 mm^2)
   Cache Area:                      0.000000 um^2 (0.000000 mm^2)

   Accelerator Area:                144501.156250 um^2 (0.144501 mm^2)
   Accelerator Area (SPM):          148074.799112 um^2 (0.148075 mm^2)
   Accelerator Area (Cache):        144501.156250 um^2 (0.144501 mm^2)

   ========= SPM Resizing  =======================
   SPM Optimized Leakage Power:     0.003633 mW
   SPM Opt Area:                    364.024374 um^2

4099116250: global: Timer #0 started at tick 4099116250
4099698750: global: Timer #3 started at tick 4099698750
4099778125: global: Timer #4 started at tick 4099778125
4099886250: global: Timer #4 stopped at tick 4099886250. Duration: 108125
4099890000: global: Timer #5 started at tick 4099890000
4099895000: global: Timer #5 stopped at tick 4099895000. Duration: 5000
4100186250: global: Timer #3 stopped at tick 4100186250. Duration: 487500
4100234375: global: Timer #2 started at tick 4100234375
4100318125: global: Timer #2 stopped at tick 4100318125. Duration: 83750
4100340000: global: Timer #4 started at tick 4100340000
4100388750: global: Timer #4 stopped at tick 4100388750. Duration: 48750
********************************************************************************
system.acctest.elem_matrix0.compute
   ========= Performance Analysis =============
   Setup Time:                      7.206849seconds
   Simulation Time:                 180.058645seconds
   System Clock:                    1.000000GHz
   Transistor Latency:              1ns
   Runtime:                         8316 cycles
   Runtime:                         8.316000 us
   Stalls:                          82 cycles
   Executed Nodes:                  8233 cycles

********************************************************************************
   ========= Performance Analysis =================
   Setup Time:                      7206848996.000000ns
   Simulation Time:                 180058645210.000000ns
   System Clock:                    1.000000GHz
   Transistor Latency:              0ns
   Runtime:                         8316 cycles
   Runtime:                         0.000001 seconds
   Stalls:                          82 cycles
       Load Only:                   0 cycles
       Store Only:                  77 cycles
       Compute Only:                0 cycles
       Compute & Store:             5 cycles
       Load & Store:                0 cycles
       Load & Compute:              0 cycles
       Load & Compute & Store:      0 cycles
   Executed Nodes:                  8233 cycles
       Load Only:                   0 cycles
       Store Only:                  11 cycles
       Compute Only:                1827 cycles
       Compute & Store:             3453 cycles
       Load & Store:                0 cycles
       Load & Compute:              774 cycles
       Load & Compute & Store:      2168 cycles

   ========= Runtime FU's ========= (Max | Avg) ===
   Counter FU's:                      32 | 0.061572
   Integer Add/Sub FU's:               0 | 0.000000
   Integer Mul/Div FU's:               0 | 0.000000
   Integer Shifter FU's:               0 | 0.000000
   Integer Bitwise FU's:               1 | 0.000120
   Floating Point Float Add/Sub:      80 | 0.302014
   Floating Point Double Add/Sub:      0 | 0.000000
   Floating Point Float Mul/Div:      35 | 0.056511
   Floating Point Double Mul/Div:      0 | 0.000000
   0 Cycle Compare FU's:              15 | 0.024828
   GEP Instruction FU's:              64 | 0.061568
   Type Conversion FU's:              66 | 0.120964

   ========= Static FU's ==========================
   Counter FU's:                    0
   Integer Add/Sub FU's:            0
   Integer Mul/Div FU's:            0
   Integer Shifter FU's:            0
   Integer Bitwise FU's:            0
   Floating Point Float Add/Sub:    0
   Floating Point Double Add/Sub:   0
   Floating Point Float Mul/Div:    0
   Floating Point Double Mul/Div:   0
   0 Cycle Compare FU's:            0
   GEP Instruction FU's:            0
   Type Conversion FU's:            0
   Other:                           0

   ========= Pipeline Register Usage =============
   Total Number of Registers:       5641
   Max Register Usage Per Cycle:    126
   Avg Register Usage Per Cycle:    27.706590
   Avg Register Size (Bytes):       5.993295

   ========= Memory Configuration =================
   Cache Bus Ports:                 0
   Shared Cache Size:               0kB
   Local Bus Ports:                 0
   Private SPM Size:                256kB
   Private Read Ports:              0
   Private Write Ports:             0
   Private Read Bus Width:          64
   Private Write Bus Width:         64
       Memory Reads:                0
       Memory Writes:               0
   ========= Power Analysis ======================
   FU Leakage Power:                1.265749 mW 
   FU Dynamic Power:                1.166708 mW 
   FU Total Power:                  2.432457 mW 

   Registers Leakage Power:          0.011908 mW 
   Registers Dynamic Power:          0.045645 mW 
       Register Reads (Bits):        230408
       Register Writes (Bits):       231961
   Registers Total Power:            0.057553 mW

   SPM Leakage Power:               0.104100 mW
   SPM Read Dynamic Power:          4.599549 mW
   SPM Write Dynamic Power:         2.880682 mW
   SPM Total Power:                 7.584331 mW

   Cache Leakage Power:             0.000000 mW
   Cache Read Dynamic Power:        0.000000 mW
   Cache Write Dynamic Power:       0.000000 mW
   Cache Total Power:               0.000000 mW

   Accelerator Power:               2.490010 mW
   Accelerator Power (SPM):         10.074342 mW
   Accelerator Power (Cache):       2.490010 mW

   ========= Area Analysis =======================
   FU Area:                         170559.593750 um^2 (0.170560 mm^2)
   Register Area:                   967.909180 um^2 (0.000968 mm^2)
   SPM Area:                        2177.365505 um^2 (0.002177 mm^2)
   Cache Area:                      0.000000 um^2 (0.000000 mm^2)

   Accelerator Area:                171527.500000 um^2 (0.171527 mm^2)
   Accelerator Area (SPM):          173704.865505 um^2 (0.173705 mm^2)
   Accelerator Area (Cache):        171527.500000 um^2 (0.171527 mm^2)

   ========= SPM Resizing  =======================
   SPM Optimized Leakage Power:     0.003887 mW
   SPM Opt Area:                    172.850411 um^2

4113711625: system.acctest.grayscale0_dma: SRC:0x000000002500c020, DST:0x0000000082029100, LEN:65536
4114103750: global: Timer #0 stopped at tick 4114103750. Duration: 14987500
4114120000: global: Number of accelerators running = 3
4114280625: global: Timer #0 started at tick 4114280625
4114581250: global: Timer #3 started at tick 4114581250
4114601250: global: Timer #4 started at tick 4114601250
4114638125: global: Timer #4 stopped at tick 4114638125. Duration: 36875
4114649375: global: Timer #5 started at tick 4114649375
4114664375: global: Timer #5 stopped at tick 4114664375. Duration: 15000
4114873125: global: Timer #3 stopped at tick 4114873125. Duration: 291875
4114915625: global: Timer #2 started at tick 4114915625
4115012500: global: Timer #2 stopped at tick 4115012500. Duration: 96875
4115270625: global: DAG ID = 2
4115284375: global: Node ID = 7
4115297500: global: Node deadline difference = -2259
4115310000: global: Predicted memory time / byte = 0.000277886 us/byte
4115322500: global: Predicted memory time = 18.2115 us
4115335000: global: Predicted memory time / byte = 0.000277886 us/byte
4115347500: global: Predicted memory time = 18.2115 us
4115360000: global: Predicted memory time / byte = 0 us/byte
4115372500: global: Predicted memory time = 0 us
4115385000: global: Predicted memory time / byte = 0 us/byte
4115397500: global: Predicted memory time = 0 us
4115410000: global: Predicted memory access size = 65536
4115422500: global: Predicted memory access size = 0
4115435000: global: Predicted memory access size = 65536
4115447500: global: Predicted memory access size = 0
4120365625: system.acctest.grayscale0_dma: Transfer completed in 6.654 us
4129265875: system.acctest.elem_matrix0_dma: SRC:0x0000000082290bc0, DST:0x0000000024010020, LEN:65536
4129487500: global: Timer #0 stopped at tick 4129487500. Duration: 15206875
4129503750: global: Number of accelerators running = 3
4129763125: global: Timer #0 started at tick 4129763125
4130101875: global: Timer #1 started at tick 4130101875
4130655000: global: Timer #1 stopped at tick 4130655000. Duration: 553125
4130884375: global: DAG ID = 0
4130898125: global: Node ID = 1
4130919375: global: Node deadline difference = -13371
4130931875: global: Predicted memory time / byte = 0.000279105 us/byte
4130944375: global: Predicted memory time = 13.7186 us
4130956875: global: Predicted memory time / byte = 0.000279105 us/byte
4130969375: global: Predicted memory time = 18.2914 us
4130981875: global: Predicted memory time / byte = 0.000182821 us/byte
4130994375: global: Predicted memory time = 8.986 us
4131006875: global: Predicted memory time / byte = 0.000243744 us/byte
4131019375: global: Predicted memory time = 15.974 us
4131031875: global: Predicted memory access size = 49152
4131044375: global: Predicted memory access size = 49152
4131056875: global: Predicted memory access size = 65536
4131069375: global: Predicted memory access size = 65536
4131195625: global: Timer #0 stopped at tick 4131195625. Duration: 1432500
4131211875: global: Number of accelerators running = 2
4141210875: system.acctest.elem_matrix0_dma: Transfer completed in 11.945 us
4141300625: global: Timer #0 started at tick 4141300625
4141803125: global: Timer #1 started at tick 4141803125
4142105000: global: Timer #1 stopped at tick 4142105000. Duration: 301875
4143627500: global: Timer #0 stopped at tick 4143627500. Duration: 2326875
4143730000: global: Number of accelerators running = 2
********************************************************************************
system.acctest.elem_matrix0.compute
   ========= Performance Analysis =============
   Setup Time:                      8.556913seconds
   Simulation Time:                 163.748403seconds
   System Clock:                    1.000000GHz
   Transistor Latency:              1ns
   Runtime:                         10932 cycles
   Runtime:                         10.932000 us
   Stalls:                          1 cycles
   Executed Nodes:                  10930 cycles

********************************************************************************
   ========= Performance Analysis =================
   Setup Time:                      8556912718.000000ns
   Simulation Time:                 163748403323.000000ns
   System Clock:                    1.000000GHz
   Transistor Latency:              0ns
   Runtime:                         10932 cycles
   Runtime:                         0.000001 seconds
   Stalls:                          1 cycles
       Load Only:                   0 cycles
       Store Only:                  1 cycles
       Compute Only:                0 cycles
       Compute & Store:             0 cycles
       Load & Store:                0 cycles
       Load & Compute:              0 cycles
       Load & Compute & Store:      0 cycles
   Executed Nodes:                  10930 cycles
       Load Only:                   0 cycles
       Store Only:                  4 cycles
       Compute Only:                1 cycles
       Compute & Store:             21 cycles
       Load & Store:                0 cycles
       Load & Compute:              6 cycles
       Load & Compute & Store:      10898 cycles

   ========= Runtime FU's ========= (Max | Avg) ===
   Counter FU's:                      32 | 0.046838
   Integer Add/Sub FU's:               0 | 0.000000
   Integer Mul/Div FU's:               0 | 0.000000
   Integer Shifter FU's:               0 | 0.000000
   Integer Bitwise FU's:               1 | 0.000091
   Floating Point Float Add/Sub:       0 | 0.000000
   Floating Point Double Add/Sub:      0 | 0.000000
   Floating Point Float Mul/Div:      34 | 0.044252
   Floating Point Double Mul/Div:      0 | 0.000000
   0 Cycle Compare FU's:             102 | 0.046945
   GEP Instruction FU's:              96 | 0.046835
   Type Conversion FU's:               7 | 0.006782

   ========= Static FU's ==========================
   Counter FU's:                    0
   Integer Add/Sub FU's:            0
   Integer Mul/Div FU's:            0
   Integer Shifter FU's:            0
   Integer Bitwise FU's:            0
   Floating Point Float Add/Sub:    0
   Floating Point Double Add/Sub:   0
   Floating Point Float Mul/Div:    0
   Floating Point Double Mul/Div:   0
   0 Cycle Compare FU's:            0
   GEP Instruction FU's:            0
   Type Conversion FU's:            0
   Other:                           0

   ========= Pipeline Register Usage =============
   Total Number of Registers:       5641
   Max Register Usage Per Cycle:    137
   Avg Register Usage Per Cycle:    12.130992
   Avg Register Size (Bytes):       5.980606

   ========= Memory Configuration =================
   Cache Bus Ports:                 0
   Shared Cache Size:               0kB
   Local Bus Ports:                 0
   Private SPM Size:                256kB
   Private Read Ports:              0
   Private Write Ports:             0
   Private Read Bus Width:          64
   Private Write Bus Width:         64
       Memory Reads:                0
       Memory Writes:               0
   ========= Power Analysis ======================
   FU Leakage Power:                0.045377 mW 
   FU Dynamic Power:                0.142576 mW 
   FU Total Power:                  0.187953 mW 

   Registers Leakage Power:          0.005281 mW 
   Registers Dynamic Power:          0.015326 mW 
       Register Reads (Bits):        132616
       Register Writes (Bits):       133658
   Registers Total Power:            0.020607 mW

   SPM Leakage Power:               0.104100 mW
   SPM Read Dynamic Power:          4.784107 mW
   SPM Write Dynamic Power:         3.448926 mW
   SPM Total Power:                 8.337133 mW

   Cache Leakage Power:             0.000000 mW
   Cache Read Dynamic Power:        0.000000 mW
   Cache Write Dynamic Power:       0.000000 mW
   Cache Total Power:               0.000000 mW

   Accelerator Power:               0.208559 mW
   Accelerator Power (SPM):         8.545693 mW
   Accelerator Power (Cache):       0.208559 mW

   ========= Area Analysis =======================
   FU Area:                         5472.068359 um^2 (0.005472 mm^2)
   Register Area:                   429.271088 um^2 (0.000429 mm^2)
   SPM Area:                        2177.365505 um^2 (0.002177 mm^2)
   Cache Area:                      0.000000 um^2 (0.000000 mm^2)

   Accelerator Area:                5901.339355 um^2 (0.005901 mm^2)
   Accelerator Area (SPM):          8078.704860 um^2 (0.008079 mm^2)
   Accelerator Area (Cache):        5901.339355 um^2 (0.005901 mm^2)

   ========= SPM Resizing  =======================
   SPM Optimized Leakage Power:     0.004248 mW
   SPM Opt Area:                    178.524902 um^2

4154408125: global: Timer #0 started at tick 4154408125
4154768125: global: Timer #3 started at tick 4154768125
4154801250: global: Timer #4 started at tick 4154801250
4154838125: global: Timer #4 stopped at tick 4154838125. Duration: 36875
4154893125: global: Timer #5 started at tick 4154893125
4154908125: global: Timer #5 stopped at tick 4154908125. Duration: 15000
4155164375: global: Timer #3 stopped at tick 4155164375. Duration: 396250
4155206875: global: Timer #2 started at tick 4155206875
4155338750: global: Timer #2 stopped at tick 4155338750. Duration: 131875
4155574375: global: DAG ID = 2
4155588125: global: Node ID = 8
4155601250: global: Node deadline difference = -2276
4155613750: global: Predicted memory time / byte = 0.000277886 us/byte
4155626250: global: Predicted memory time = 36.423 us
4155638750: global: Predicted memory time / byte = 0.000277886 us/byte
4155651250: global: Predicted memory time = 18.2115 us
4155663750: global: Predicted memory time / byte = 0.000183731 us/byte
4155676250: global: Predicted memory time = 12.041 us
4155688750: global: Predicted memory time / byte = 0 us/byte
4155701250: global: Predicted memory time = 0 us
4155713750: global: Predicted memory access size = 131072
4155726250: global: Predicted memory access size = 65536
4155738750: global: Predicted memory access size = 65536
4155751250: global: Predicted memory access size = 0
4169132375: system.acctest.elem_matrix0_dma: SRC:0x0000000082190a00, DST:0x0000000024000020, LEN:65536
4169340625: global: Timer #0 stopped at tick 4169340625. Duration: 14932500
4169356875: global: Number of accelerators running = 2
4181334375: system.acctest.elem_matrix0_dma: Transfer completed in 12.202 us
4181482500: global: Timer #0 started at tick 4181482500
4181899375: global: Timer #1 started at tick 4181899375
4182357500: global: Timer #1 stopped at tick 4182357500. Duration: 458125
4183895625: global: Timer #0 stopped at tick 4183895625. Duration: 2413125
4183911875: global: Number of accelerators running = 2
********************************************************************************
system.acctest.elem_matrix0.compute
   ========= Performance Analysis =============
   Setup Time:                      6.726866seconds
   Simulation Time:                 112.278747seconds
   System Clock:                    1.000000GHz
   Transistor Latency:              1ns
   Runtime:                         10932 cycles
   Runtime:                         10.932000 us
   Stalls:                          0 cycles
   Executed Nodes:                  10931 cycles

********************************************************************************
   ========= Performance Analysis =================
   Setup Time:                      6726865805.000000ns
   Simulation Time:                 112278747303.000000ns
   System Clock:                    1.000000GHz
   Transistor Latency:              0ns
   Runtime:                         10932 cycles
   Runtime:                         0.000001 seconds
   Stalls:                          0 cycles
       Load Only:                   0 cycles
       Store Only:                  0 cycles
       Compute Only:                0 cycles
       Compute & Store:             0 cycles
       Load & Store:                0 cycles
       Load & Compute:              0 cycles
       Load & Compute & Store:      0 cycles
   Executed Nodes:                  10931 cycles
       Load Only:                   0 cycles
       Store Only:                  5 cycles
       Compute Only:                1 cycles
       Compute & Store:             21 cycles
       Load & Store:                0 cycles
       Load & Compute:              7 cycles
       Load & Compute & Store:      10897 cycles

   ========= Runtime FU's ========= (Max | Avg) ===
   Counter FU's:                      32 | 0.046838
   Integer Add/Sub FU's:               0 | 0.000000
   Integer Mul/Div FU's:               0 | 0.000000
   Integer Shifter FU's:               0 | 0.000000
   Integer Bitwise FU's:               1 | 0.000091
   Floating Point Float Add/Sub:      34 | 0.044252
   Floating Point Double Add/Sub:      0 | 0.000000
   Floating Point Float Mul/Div:       0 | 0.000000
   Floating Point Double Mul/Div:      0 | 0.000000
   0 Cycle Compare FU's:             102 | 0.046974
   GEP Instruction FU's:              96 | 0.046835
   Type Conversion FU's:               7 | 0.006782

   ========= Static FU's ==========================
   Counter FU's:                    0
   Integer Add/Sub FU's:            0
   Integer Mul/Div FU's:            0
   Integer Shifter FU's:            0
   Integer Bitwise FU's:            0
   Floating Point Float Add/Sub:    0
   Floating Point Double Add/Sub:   0
   Floating Point Float Mul/Div:    0
   Floating Point Double Mul/Div:   0
   0 Cycle Compare FU's:            0
   GEP Instruction FU's:            0
   Type Conversion FU's:            0
   Other:                           0

   ========= Pipeline Register Usage =============
   Total Number of Registers:       5641
   Max Register Usage Per Cycle:    138
   Avg Register Usage Per Cycle:    12.130992
   Avg Register Size (Bytes):       5.980606

   ========= Memory Configuration =================
   Cache Bus Ports:                 0
   Shared Cache Size:               0kB
   Local Bus Ports:                 0
   Private SPM Size:                256kB
   Private Read Ports:              0
   Private Write Ports:             0
   Private Read Bus Width:          64
   Private Write Bus Width:         64
       Memory Reads:                0
       Memory Writes:               0
   ========= Power Analysis ======================
   FU Leakage Power:                0.519269 mW 
   FU Dynamic Power:                0.154621 mW 
   FU Total Power:                  0.673890 mW 

   Registers Leakage Power:          0.005281 mW 
   Registers Dynamic Power:          0.015326 mW 
       Register Reads (Bits):        132616
       Register Writes (Bits):       133658
   Registers Total Power:            0.020607 mW

   SPM Leakage Power:               0.104100 mW
   SPM Read Dynamic Power:          5.190014 mW
   SPM Write Dynamic Power:         3.846212 mW
   SPM Total Power:                 9.140327 mW

   Cache Leakage Power:             0.000000 mW
   Cache Read Dynamic Power:        0.000000 mW
   Cache Write Dynamic Power:       0.000000 mW
   Cache Total Power:               0.000000 mW

   Accelerator Power:               0.694497 mW
   Accelerator Power (SPM):         9.834824 mW
   Accelerator Power (Cache):       0.694497 mW

   ========= Area Analysis =======================
   FU Area:                         70212.562500 um^2 (0.070213 mm^2)
   Register Area:                   429.271088 um^2 (0.000429 mm^2)
   SPM Area:                        2177.365505 um^2 (0.002177 mm^2)
   Cache Area:                      0.000000 um^2 (0.000000 mm^2)

   Accelerator Area:                70641.835938 um^2 (0.070642 mm^2)
   Accelerator Area (SPM):          72819.201442 um^2 (0.072819 mm^2)
   Accelerator Area (Cache):        70641.835938 um^2 (0.070642 mm^2)

   ========= SPM Resizing  =======================
   SPM Optimized Leakage Power:     0.004248 mW
   SPM Opt Area:                    178.524902 um^2

4194692500: global: Timer #0 started at tick 4194692500
4194861875: global: Timer #3 started at tick 4194861875
4194891875: global: Timer #4 started at tick 4194891875
4194928750: global: Timer #4 stopped at tick 4194928750. Duration: 36875
4194940000: global: Timer #5 started at tick 4194940000
4194955000: global: Timer #5 stopped at tick 4194955000. Duration: 15000
4195163750: global: Timer #3 stopped at tick 4195163750. Duration: 301875
4195206250: global: Timer #2 started at tick 4195206250
4195288750: global: Timer #2 stopped at tick 4195288750. Duration: 82500
4195524375: global: DAG ID = 2
4195538125: global: Node ID = 9
4195551250: global: Node deadline difference = -2293
4195563750: global: Predicted memory time / byte = 0.000266981 us/byte
4195576250: global: Predicted memory time = 34.9938 us
4195588750: global: Predicted memory time / byte = 0.000266981 us/byte
4195601250: global: Predicted memory time = 17.4969 us
4195613750: global: Predicted memory time / byte = 0.000187225 us/byte
4195626250: global: Predicted memory time = 12.27 us
4195638750: global: Predicted memory time / byte = 0 us/byte
4195651250: global: Predicted memory time = 0 us
4195663750: global: Predicted memory access size = 131072
4195676250: global: Predicted memory access size = 65536
4195688750: global: Predicted memory access size = 65536
4195701250: global: Predicted memory access size = 0
4209097375: system.acctest.elem_matrix0_dma: SRC:0x0000000082170880, DST:0x0000000024000020, LEN:65536
4209313125: global: Timer #0 stopped at tick 4209313125. Duration: 14620625
4209329375: global: Number of accelerators running = 2
4221093375: system.acctest.elem_matrix0_dma: Transfer completed in 11.996 us
4221218125: global: Timer #0 started at tick 4221218125
4221678125: global: Timer #1 started at tick 4221678125
4222201875: global: Timer #1 stopped at tick 4222201875. Duration: 523750
4223732500: global: Timer #0 stopped at tick 4223732500. Duration: 2514375
4223748750: global: Number of accelerators running = 2
********************************************************************************
system.acctest.elem_matrix0.compute
   ========= Performance Analysis =============
[...]
   Type Conversion FU's:            0
   Other:                           0

   ========= Pipeline Register Usage =============
   Total Number of Registers:       5641
   Max Register Usage Per Cycle:    137
   Avg Register Usage Per Cycle:    12.117690
   Avg Register Size (Bytes):       5.980606

   ========= Memory Configuration =================
   Cache Bus Ports:                 0
   Shared Cache Size:               0kB
   Local Bus Ports:                 0
   Private SPM Size:                256kB
   Private Read Ports:              0
   Private Write Ports:             0
   Private Read Bus Width:          64
   Private Write Bus Width:         64
       Memory Reads:                0
       Memory Writes:               0
   ========= Power Analysis ======================
   FU Leakage Power:                0.000611 mW 
   FU Dynamic Power:                0.036818 mW 
   FU Total Power:                  0.037429 mW 

   Registers Leakage Power:          0.005281 mW 
   Registers Dynamic Power:          0.015342 mW 
       Register Reads (Bits):        132616
       Register Writes (Bits):       133658
   Registers Total Power:            0.020624 mW

   SPM Leakage Power:               0.104100 mW
   SPM Read Dynamic Power:          23.975050 mW
   SPM Write Dynamic Power:         19.602807 mW
   SPM Total Power:                 43.681958 mW

   Cache Leakage Power:             0.000000 mW
   Cache Read Dynamic Power:        0.000000 mW
   Cache Write Dynamic Power:       0.000000 mW
   Cache Total Power:               0.000000 mW

   Accelerator Power:               0.058053 mW
   Accelerator Power (SPM):         43.740011 mW
   Accelerator Power (Cache):       0.058053 mW

   ========= Area Analysis =======================
   FU Area:                         50.369961 um^2 (0.000050 mm^2)
   Register Area:                   429.271088 um^2 (0.000429 mm^2)
   SPM Area:                        2177.365505 um^2 (0.002177 mm^2)
   Cache Area:                      0.000000 um^2 (0.000000 mm^2)

   Accelerator Area:                479.641052 um^2 (0.000480 mm^2)
   Accelerator Area (SPM):          2657.006557 um^2 (0.002657 mm^2)
   Accelerator Area (Cache):        479.641052 um^2 (0.000480 mm^2)

   ========= SPM Resizing  =======================
   SPM Optimized Leakage Power:     0.004248 mW
   SPM Opt Area:                    178.524902 um^2

21571155000: global: Timer #0 started at tick 21571155000
21571393750: global: Timer #3 started at tick 21571393750
21571413750: global: Timer #4 started at tick 21571413750
21571505000: global: Timer #4 stopped at tick 21571505000. Duration: 91250
21571513125: global: Timer #5 started at tick 21571513125
21571528125: global: Timer #5 stopped at tick 21571528125. Duration: 15000
21571744375: global: Timer #3 stopped at tick 21571744375. Duration: 350625
21571786875: global: Timer #2 started at tick 21571786875
21571833125: global: Timer #2 stopped at tick 21571833125. Duration: 46250
21572074375: global: DAG ID = 1
21572088125: global: Node ID = 19
21572101250: global: Node deadline difference = 2639
21572113750: global: Predicted memory time / byte = 0.00017907 us/byte
21572126250: global: Predicted memory time = 23.4711 us
21572138750: global: Predicted memory time / byte = 0.00017907 us/byte
21572151250: global: Predicted memory time = 11.7355 us
21572163750: global: Predicted memory time / byte = 0.000172142 us/byte
21572176250: global: Predicted memory time = 22.563 us
21572188750: global: Predicted memory time / byte = 0 us/byte
21572201250: global: Predicted memory time = 0 us
21572213750: global: Predicted memory access size = 131072
21572226250: global: Predicted memory access size = 131072
21572238750: global: Predicted memory access size = 65536
21572251250: global: Predicted memory access size = 0
21573080875: system.acctest.convolution0_dma: SRC:0x0000000024020020, DST:0x0000000022000020, LEN:65536
21573355000: global: Timer #0 stopped at tick 21573355000. Duration: 2200000
21573371250: global: Number of accelerators running = 1
21583341875: system.acctest.convolution0_dma: Transfer completed in 10.261 us
21583468125: global: Timer #0 started at tick 21583468125
21584005625: global: Timer #1 started at tick 21584005625
21584411875: global: Timer #1 stopped at tick 21584411875. Duration: 406250
21585535875: system.acctest.convolution0_dma: SRC:0x00000000820ce140, DST:0x0000000022030020, LEN:100
21585632875: system.acctest.convolution0_dma: Transfer completed in 0.097 us
21585801875: global: Timer #0 stopped at tick 21585801875. Duration: 2333750
21585818125: global: Number of accelerators running = 1
21586058750: global: Timer #0 started at tick 21586058750
21587819375: global: Timer #0 stopped at tick 21587819375. Duration: 1760625
21587835625: global: Number of accelerators running = 1
********************************************************************************
system.acctest.convolution0.compute
   ========= Performance Analysis =============
   Setup Time:                      0.407910seconds
   Simulation Time:                 198.030921seconds
   System Clock:                    1.000000GHz
   Transistor Latency:              1ns
   Runtime:                         1545605 cycles
   Runtime:                         1545.605000 us
   Stalls:                          0 cycles
   Executed Nodes:                  1545604 cycles

********************************************************************************
   ========= Performance Analysis =================
   Setup Time:                      407909630.000000ns
   Simulation Time:                 198030920628.000000ns
   System Clock:                    1.000000GHz
   Transistor Latency:              0ns
   Runtime:                         1545605 cycles
   Runtime:                         0.000155 seconds
   Stalls:                          0 cycles
       Load Only:                   0 cycles
       Store Only:                  0 cycles
       Compute Only:                0 cycles
       Compute & Store:             0 cycles
       Load & Store:                0 cycles
       Load & Compute:              0 cycles
       Load & Compute & Store:      0 cycles
   Executed Nodes:                  1545604 cycles
       Load Only:                   0 cycles
       Store Only:                  0 cycles
       Compute Only:                1127274 cycles
       Compute & Store:             16374 cycles
       Load & Store:                0 cycles
       Load & Compute:              401946 cycles
       Load & Compute & Store:      10 cycles

   ========= Runtime FU's ========= (Max | Avg) ===
   Counter FU's:                       3 | 0.112298
   Integer Add/Sub FU's:               4 | 0.211564
   Integer Mul/Div FU's:               1 | 0.052505
   Integer Shifter FU's:              10 | 0.005268
   Integer Bitwise FU's:               2 | 0.184266
   Floating Point Float Add/Sub:       5 | 0.207991
   Floating Point Double Add/Sub:      0 | 0.000000
   Floating Point Float Mul/Div:       2 | 0.130117
   Floating Point Double Mul/Div:      0 | 0.000000
   0 Cycle Compare FU's:              40 | 0.145956
   GEP Instruction FU's:               4 | 0.132683
   Type Conversion FU's:               7 | 0.186618

   ========= Static FU's ==========================
   Counter FU's:                    0
   Integer Add/Sub FU's:            0
   Integer Mul/Div FU's:            0
   Integer Shifter FU's:            0
   Integer Bitwise FU's:            0
   Floating Point Float Add/Sub:    0
   Floating Point Double Add/Sub:   0
   Floating Point Float Mul/Div:    0
   Floating Point Double Mul/Div:   0
   0 Cycle Compare FU's:            0
   GEP Instruction FU's:            0
   Type Conversion FU's:            0
   Other:                           0

   ========= Pipeline Register Usage =============
   Total Number of Registers:       1702
   Max Register Usage Per Cycle:    20
   Avg Register Usage Per Cycle:    6.348199
   Avg Register Size (Bytes):       5.569148

   ========= Memory Configuration =================
   Cache Bus Ports:                 0
   Shared Cache Size:               0kB
   Local Bus Ports:                 0
   Private SPM Size:                192kB
   Private Read Ports:              0
   Private Write Ports:             0
   Private Read Bus Width:          64
   Private Write Bus Width:         64
       Memory Reads:                0
       Memory Writes:               0
   ========= Power Analysis ======================
   FU Leakage Power:                0.196912 mW 
   FU Dynamic Power:                2743.028564 mW 
   FU Total Power:                  2743.225586 mW 

   Registers Leakage Power:          0.002459 mW 
   Registers Dynamic Power:          75.251152 mW 
       Register Reads (Bits):        9811808
       Register Writes (Bits):       10049727
   Registers Total Power:            75.253609 mW

   SPM Leakage Power:               0.078311 mW
   SPM Read Dynamic Power:          37.099763 mW
   SPM Write Dynamic Power:         5.754209 mW
   SPM Total Power:                 42.932282 mW

   Cache Leakage Power:             0.000000 mW
   Cache Read Dynamic Power:        0.000000 mW
   Cache Write Dynamic Power:       0.000000 mW
   Cache Total Power:               0.000000 mW

   Accelerator Power:               2818.479248 mW
   Accelerator Power (SPM):         2861.411530 mW
   Accelerator Power (Cache):       2818.479248 mW

   ========= Area Analysis =======================
   FU Area:                         22931.867188 um^2 (0.022932 mm^2)
   Register Area:                   199.868912 um^2 (0.000200 mm^2)
   SPM Area:                        1748.188735 um^2 (0.001748 mm^2)
   Cache Area:                      0.000000 um^2 (0.000000 mm^2)

   Accelerator Area:                23131.736328 um^2 (0.023132 mm^2)
   Accelerator Area (SPM):          24879.925063 um^2 (0.024880 mm^2)
   Accelerator Area (Cache):        23131.736328 um^2 (0.023132 mm^2)

   ========= SPM Resizing  =======================
   SPM Optimized Leakage Power:     0.002053 mW
   SPM Opt Area:                    145.024971 um^2

23133266875: global: Timer #0 started at tick 23133266875
23133503125: global: Timer #3 started at tick 23133503125
23133570000: global: Timer #4 started at tick 23133570000
23133606875: global: Timer #4 stopped at tick 23133606875. Duration: 36875
23133618125: global: Timer #5 started at tick 23133618125
23133633125: global: Timer #5 stopped at tick 23133633125. Duration: 15000
23134039375: global: Timer #3 stopped at tick 23134039375. Duration: 536250
23134081875: global: Timer #2 started at tick 23134081875
23134127500: global: Timer #2 stopped at tick 23134127500. Duration: 45625
23134362500: global: DAG ID = 1
23134376250: global: Node ID = 20
23134389375: global: Node deadline difference = 2624
23134401875: global: Predicted memory time / byte = 0.000175309 us/byte
23134414375: global: Predicted memory time = 11.5066 us
23134426875: global: Predicted memory time / byte = 0.000175309 us/byte
23134439375: global: Predicted memory time = 11.4891 us
23134451875: global: Predicted memory time / byte = 0.000158401 us/byte
23134464375: global: Predicted memory time = 10.381 us
23134476875: global: Predicted memory time / byte = 0 us/byte
23134489375: global: Predicted memory time = 0 us
23134501875: global: Predicted memory access size = 65636
23134514375: global: Predicted memory access size = 65636
23134526875: global: Predicted memory access size = 65536
23134539375: global: Predicted memory access size = 0
23147920875: system.acctest.elem_matrix0_dma: SRC:0x00000000820fe600, DST:0x0000000024000020, LEN:65536
23148133125: global: Timer #0 stopped at tick 23148133125. Duration: 14866250
23148149375: global: Number of accelerators running = 1
23159866875: system.acctest.elem_matrix0_dma: Transfer completed in 11.946 us
23159998125: global: Timer #0 started at tick 23159998125
23160442500: global: Timer #1 started at tick 23160442500
23160900000: global: Timer #1 stopped at tick 23160900000. Duration: 457500
23161896625: system.acctest.elem_matrix0_dma: SRC:0x0000000022010020, DST:0x0000000024010020, LEN:65536
23162143125: global: Timer #0 stopped at tick 23162143125. Duration: 2145000
23162159375: global: Number of accelerators running = 1
23172157625: system.acctest.elem_matrix0_dma: Transfer completed in 10.261 us
23172264375: global: Timer #0 started at tick 23172264375
23172751250: global: Timer #1 started at tick 23172751250
23173115000: global: Timer #1 stopped at tick 23173115000. Duration: 363750
23174600625: global: Timer #0 stopped at tick 23174600625. Duration: 2336250
23174616875: global: Number of accelerators running = 1
********************************************************************************
system.acctest.elem_matrix0.compute
   ========= Performance Analysis =============
   Setup Time:                      3.368569seconds
   Simulation Time:                 81.917013seconds
   System Clock:                    1.000000GHz
   Transistor Latency:              1ns
   Runtime:                         10932 cycles
   Runtime:                         10.932000 us
   Stalls:                          1 cycles
   Executed Nodes:                  10930 cycles

********************************************************************************
   ========= Performance Analysis =================
   Setup Time:                      3368569470.000000ns
   Simulation Time:                 81917012708.000000ns
   System Clock:                    1.000000GHz
   Transistor Latency:              0ns
   Runtime:                         10932 cycles
   Runtime:                         0.000001 seconds
   Stalls:                          1 cycles
       Load Only:                   0 cycles
       Store Only:                  1 cycles
       Compute Only:                0 cycles
       Compute & Store:             0 cycles
       Load & Store:                0 cycles
       Load & Compute:              0 cycles
       Load & Compute & Store:      0 cycles
   Executed Nodes:                  10930 cycles
       Load Only:                   0 cycles
       Store Only:                  4 cycles
       Compute Only:                1 cycles
       Compute & Store:             21 cycles
       Load & Store:                0 cycles
       Load & Compute:              6 cycles
       Load & Compute & Store:      10898 cycles

   ========= Runtime FU's ========= (Max | Avg) ===
   Counter FU's:                      32 | 0.046838
   Integer Add/Sub FU's:               0 | 0.000000
   Integer Mul/Div FU's:               0 | 0.000000
   Integer Shifter FU's:               0 | 0.000000
   Integer Bitwise FU's:               1 | 0.000091
   Floating Point Float Add/Sub:       0 | 0.000000
   Floating Point Double Add/Sub:      0 | 0.000000
   Floating Point Float Mul/Div:      34 | 0.044252
   Floating Point Double Mul/Div:      0 | 0.000000
   0 Cycle Compare FU's:             102 | 0.046945
   GEP Instruction FU's:              96 | 0.046835
   Type Conversion FU's:               7 | 0.006782

   ========= Static FU's ==========================
   Counter FU's:                    0
   Integer Add/Sub FU's:            0
   Integer Mul/Div FU's:            0
   Integer Shifter FU's:            0
   Integer Bitwise FU's:            0
   Floating Point Float Add/Sub:    0
   Floating Point Double Add/Sub:   0
   Floating Point Float Mul/Div:    0
   Floating Point Double Mul/Div:   0
   0 Cycle Compare FU's:            0
   GEP Instruction FU's:            0
   Type Conversion FU's:            0
   Other:                           0

   ========= Pipeline Register Usage =============
   Total Number of Registers:       5641
   Max Register Usage Per Cycle:    137
   Avg Register Usage Per Cycle:    12.130992
   Avg Register Size (Bytes):       5.980606

   ========= Memory Configuration =================
   Cache Bus Ports:                 0
   Shared Cache Size:               0kB
   Local Bus Ports:                 0
   Private SPM Size:                256kB
   Private Read Ports:              0
   Private Write Ports:             0
   Private Read Bus Width:          64
   Private Write Bus Width:         64
       Memory Reads:                0
       Memory Writes:               0
   ========= Power Analysis ======================
   FU Leakage Power:                0.045377 mW 
   FU Dynamic Power:                0.142576 mW 
   FU Total Power:                  0.187953 mW 

   Registers Leakage Power:          0.005281 mW 
   Registers Dynamic Power:          0.015326 mW 
       Register Reads (Bits):        132616
       Register Writes (Bits):       133658
   Registers Total Power:            0.020607 mW

   SPM Leakage Power:               0.104100 mW
   SPM Read Dynamic Power:          24.075045 mW
   SPM Write Dynamic Power:         19.658302 mW
   SPM Total Power:                 43.837447 mW

   Cache Leakage Power:             0.000000 mW
   Cache Read Dynamic Power:        0.000000 mW
   Cache Write Dynamic Power:       0.000000 mW
   Cache Total Power:               0.000000 mW

   Accelerator Power:               0.208559 mW
   Accelerator Power (SPM):         44.046006 mW
   Accelerator Power (Cache):       0.208559 mW

   ========= Area Analysis =======================
   FU Area:                         5472.068359 um^2 (0.005472 mm^2)
   Register Area:                   429.271088 um^2 (0.000429 mm^2)
   SPM Area:                        2177.365505 um^2 (0.002177 mm^2)
   Cache Area:                      0.000000 um^2 (0.000000 mm^2)

   Accelerator Area:                5901.339355 um^2 (0.005901 mm^2)
   Accelerator Area (SPM):          8078.704860 um^2 (0.008079 mm^2)
   Accelerator Area (Cache):        5901.339355 um^2 (0.005901 mm^2)

   ========= SPM Resizing  =======================
   SPM Optimized Leakage Power:     0.004248 mW
   SPM Opt Area:                    178.524902 um^2

23185376875: global: Timer #0 started at tick 23185376875
23198680875: system.acctest.elem_matrix0_dma: SRC:0x0000000024020020, DST:0x00000000820fe600, LEN:65536
23199048750: global: Timer #0 stopped at tick 23199048750. Duration: 13671875
23199065000: global: Number of accelerators running = 1
23205071875: system.acctest.elem_matrix0_dma: Transfer completed in 6.391 us
23205147500: global: Timer #0 started at tick 23205147500
23205529375: global: Timer #1 started at tick 23205529375
23205816875: global: Timer #1 stopped at tick 23205816875. Duration: 287500
23206035625: global: DAG ID = 1
23206049375: global: Node ID = 21
23206075000: global: DAG execution time = 19306
23206089375: global: DAG deadline difference = 2639
23206109375: global: Node deadline difference = 2639
23206121875: global: Predicted memory time / byte = 0.000175324 us/byte
23206134375: global: Predicted memory time = 22.98 us
23206146875: global: Predicted memory time / byte = 0.000175324 us/byte
23206159375: global: Predicted memory time = 11.49 us
23206171875: global: Predicted memory time / byte = 0.000171242 us/byte
23206184375: global: Predicted memory time = 22.445 us
23206196875: global: Predicted memory time / byte = 9.82056e-05 us/byte
23206209375: global: Predicted memory time = 6.436 us
23206221875: global: Predicted memory access size = 131072
23206234375: global: Predicted memory access size = 131072
23206246875: global: Predicted memory access size = 65536
23206259375: global: Predicted memory access size = 65536
23206371875: global: Timer #0 stopped at tick 23206371875. Duration: 1224375
23206388125: global: Number of accelerators running = 0
23206506875: global: Number of forwards = 127
23206642500: global: Number of colocations = 106
23206661250: global: Number of DAG deadlines met = 2
23206679375: global: Number of node deadlines met = 136
23206711875: global: Total predicted compute time = 20394 us
Exiting @ tick 23207071250 because m5_exit instruction encountered
