
---------- Begin Simulation Statistics ----------
final_tick                                23206770000                       # Number of ticks from beginning of simulation (restored from checkpoints and never reset)
host_inst_rate                                    363                       # Simulator instruction rate (inst/s)
host_mem_usage                                8511356                       # Number of bytes of host memory used
host_op_rate                                      373                       # Simulator op (including micro ops) rate (op/s)
host_seconds                                 20242.85                       # Real time elapsed on the host
host_tick_rate                                 953726                       # Simulator tick rate (ticks/s)
sim_freq                                 1000000000000                       # Frequency of simulated ticks
sim_insts                                     7340026                       # Number of instructions simulated
sim_ops                                       7540588                       # Number of ops (including micro ops) simulated
sim_seconds                                  0.019306                       # Number of seconds simulated
sim_ticks                                 19306130625                       # Number of ticks simulated
system.acctest.coherency_bus.snoop_filter.hit_multi_requests            0                       # Number of requests hitting in the snoop filter with multiple (>1) holders of the requested data.
system.acctest.coherency_bus.snoop_filter.hit_multi_snoops            0                       # Number of snoops hitting in the snoop filter with multiple (>1) holders of the requested data.
system.acctest.coherency_bus.snoop_filter.hit_single_requests            0                       # Number of requests hitting in the snoop filter with a single holder of the requested data.
system.acctest.coherency_bus.snoop_filter.hit_single_snoops            0                       # Number of snoops hitting in the snoop filter with a single holder of the requested data.
system.acctest.coherency_bus.snoop_filter.tot_requests            0                       # Total number of requests made to the snoop filter.
system.acctest.coherency_bus.snoop_filter.tot_snoops            0                       # Total number of snoops made to the snoop filter.
system.cf0.dma_read_bytes                           0                       # Number of bytes transfered via DMA reads (not PRD).
system.cf0.dma_read_full_pages                      0                       # Number of full page size DMA reads (not PRD).
system.cf0.dma_read_txs                             0                       # Number of DMA read transactions (not PRD).
system.cf0.dma_write_bytes                          0                       # Number of bytes transfered via DMA writes.
system.cf0.dma_write_full_pages                     0                       # Number of full page size DMA writes.
system.cf0.dma_write_txs                            0                       # Number of DMA write transactions.
system.cpu.branchPred.BTBCorrect                    0                       # Number of correct BTB predictions (this stat may not work properly.
system.cpu.branchPred.BTBHitPct             94.982307                       # BTB Hit Percentage
system.cpu.branchPred.BTBHits                  233798                       # Number of BTB hits
system.cpu.branchPred.BTBLookups               246149                       # Number of BTB lookups
system.cpu.branchPred.RASInCorrect                475                       # Number of incorrect RAS predictions.
system.cpu.branchPred.condIncorrect              5326                       # Number of conditional branches incorrect
system.cpu.branchPred.condPredicted            249490                       # Number of conditional branches predicted
system.cpu.branchPred.indirectHits               4111                       # Number of indirect target hits.
system.cpu.branchPred.indirectLookups            4990                       # Number of indirect predictor lookups.
system.cpu.branchPred.indirectMisses              879                       # Number of indirect misses.
system.cpu.branchPred.lookups                  284380                       # Number of BP lookups
system.cpu.branchPred.usedRAS                   13101                       # Number of times the RAS was used to get a target.
system.cpu.branchPredindirectMispredicted          740                       # Number of mispredicted indirect branches.
system.cpu.committedInsts                     1729055                       # Number of instructions committed
system.cpu.committedOps                       1763992                       # Number of ops (including micro ops) committed
system.cpu.cpi                               3.077753                       # CPI: cycles per instruction
system.cpu.discardedOps                         13327                       # Number of ops (including micro ops) which were discarded before commit
system.cpu.dtb.accesses                             0                       # DTB accesses
system.cpu.dtb.align_faults                         0                       # Number of TLB faults due to alignment restrictions
system.cpu.dtb.domain_faults                        0                       # Number of TLB faults due to domain restrictions
system.cpu.dtb.flush_entries                        0                       # Number of entries that have been flushed from TLB
system.cpu.dtb.flush_tlb                            0                       # Number of times complete TLB was flushed
system.cpu.dtb.flush_tlb_asid                       0                       # Number of times TLB was flushed by ASID
system.cpu.dtb.flush_tlb_mva                        0                       # Number of times TLB was flushed by MVA
system.cpu.dtb.flush_tlb_mva_asid                   0                       # Number of times TLB was flushed by MVA & ASID
system.cpu.dtb.hits                                 0                       # DTB hits
system.cpu.dtb.inst_accesses                        0                       # ITB inst accesses
system.cpu.dtb.inst_hits                            0                       # ITB inst hits
system.cpu.dtb.inst_misses                          0                       # ITB inst misses
system.cpu.dtb.misses                               0                       # DTB misses
system.cpu.dtb.perms_faults                         0                       # Number of TLB faults due to permissions restrictions
system.cpu.dtb.prefetch_faults                      0                       # Number of TLB faults due to prefetch
system.cpu.dtb.read_accesses                        0                       # DTB read accesses
system.cpu.dtb.read_hits                            0                       # DTB read hits
system.cpu.dtb.read_misses                          0                       # DTB read misses
system.cpu.dtb.stage2_mmu.stage2_tlb.accesses            0                       # DTB accesses
system.cpu.dtb.stage2_mmu.stage2_tlb.align_faults            0                       # Number of TLB faults due to alignment restrictions
system.cpu.dtb.stage2_mmu.stage2_tlb.domain_faults            0                       # Number of TLB faults due to domain restrictions
system.cpu.dtb.stage2_mmu.stage2_tlb.flush_entries            0                       # Number of entries that have been flushed from TLB
system.cpu.dtb.stage2_mmu.stage2_tlb.flush_tlb            0                       # Number of times complete TLB was flushed
system.cpu.dtb.stage2_mmu.stage2_tlb.flush_tlb_asid            0                       # Number of times TLB was flushed by ASID
system.cpu.dtb.stage2_mmu.stage2_tlb.flush_tlb_mva            0                       # Number of times TLB was flushed by MVA
system.cpu.dtb.stage2_mmu.stage2_tlb.flush_tlb_mva_asid            0                       # Number of times TLB was flushed by MVA & ASID
system.cpu.dtb.stage2_mmu.stage2_tlb.hits            0                       # DTB hits
system.cpu.dtb.stage2_mmu.stage2_tlb.inst_accesses            0                       # ITB inst accesses
system.cpu.dtb.stage2_mmu.stage2_tlb.inst_hits            0                       # ITB inst hits
system.cpu.dtb.stage2_mmu.stage2_tlb.inst_misses            0                       # ITB inst misses
system.cpu.dtb.stage2_mmu.stage2_tlb.misses            0                       # DTB misses
system.cpu.dtb.stage2_mmu.stage2_tlb.perms_faults            0                       # Number of TLB faults due to permissions restrictions
system.cpu.dtb.stage2_mmu.stage2_tlb.prefetch_faults            0                       # Number of TLB faults due to prefetch
system.cpu.dtb.stage2_mmu.stage2_tlb.read_accesses            0                       # DTB read accesses
system.cpu.dtb.stage2_mmu.stage2_tlb.read_hits            0                       # DTB read hits
system.cpu.dtb.stage2_mmu.stage2_tlb.read_misses            0                       # DTB read misses
system.cpu.dtb.stage2_mmu.stage2_tlb.walker.walkRequestOrigin_Requested::Data            0                       # Table walker requests started/completed, data/inst
system.cpu.dtb.stage2_mmu.stage2_tlb.walker.walkRequestOrigin_Requested::Inst            0                       # Table walker requests started/completed, data/inst
system.cpu.dtb.stage2_mmu.stage2_tlb.walker.walkRequestOrigin_Requested::total            0                       # Table walker requests started/completed, data/inst
system.cpu.dtb.stage2_mmu.stage2_tlb.walker.walkRequestOrigin_Completed::Data            0                       # Table walker requests started/completed, data/inst
system.cpu.dtb.stage2_mmu.stage2_tlb.walker.walkRequestOrigin_Completed::Inst            0                       # Table walker requests started/completed, data/inst
system.cpu.dtb.stage2_mmu.stage2_tlb.walker.walkRequestOrigin_Completed::total            0                       # Table walker requests started/completed, data/inst
system.cpu.dtb.stage2_mmu.stage2_tlb.walker.walkRequestOrigin::total            0                       # Table walker requests started/completed, data/inst
system.cpu.dtb.stage2_mmu.stage2_tlb.walker.walks            0                       # Table walker walks requested
system.cpu.dtb.stage2_mmu.stage2_tlb.write_accesses            0                       # DTB write accesses
system.cpu.dtb.stage2_mmu.stage2_tlb.write_hits            0                       # DTB write hits
system.cpu.dtb.stage2_mmu.stage2_tlb.write_misses            0                       # DTB write misses
system.cpu.dtb.walker.walkRequestOrigin_Requested::Data            0                       # Table walker requests started/completed, data/inst
system.cpu.dtb.walker.walkRequestOrigin_Requested::Inst            0                       # Table walker requests started/completed, data/inst
system.cpu.dtb.walker.walkRequestOrigin_Requested::total            0                       # Table walker requests started/completed, data/inst
system.cpu.dtb.walker.walkRequestOrigin_Completed::Data            0                       # Table walker requests started/completed, data/inst
system.cpu.dtb.walker.walkRequestOrigin_Completed::Inst            0                       # Table walker requests started/completed, data/inst
system.cpu.dtb.walker.walkRequestOrigin_Completed::total            0                       # Table walker requests started/completed, data/inst
system.cpu.dtb.walker.walkRequestOrigin::total            0                       # Table walker requests started/completed, data/inst
system.cpu.dtb.walker.walks                         0                       # Table walker walks requested
system.cpu.dtb.write_accesses                       0                       # DTB write accesses
system.cpu.dtb.write_hits                           0                       # DTB write hits
system.cpu.dtb.write_misses                         0                       # DTB write misses
system.cpu.fetch2.amo_instructions                  0                       # Number of memory atomic instructions successfully decoded
system.cpu.fetch2.fp_instructions                   0                       # Number of floating point instructions successfully decoded
system.cpu.fetch2.int_instructions             999920                       # Number of integer instructions successfully decoded
system.cpu.fetch2.load_instructions             87816                       # Number of memory load instructions successfully decoded
system.cpu.fetch2.store_instructions           432653                       # Number of memory store instructions successfully decoded
system.cpu.fetch2.vec_instructions                  0                       # Number of SIMD instructions successfully decoded
system.cpu.idleCycles                         1754811                       # Total number of cycles that the object has spent stopped
system.cpu.ipc                               0.324912                       # IPC: instructions per cycle
system.cpu.itb.accesses                             0                       # DTB accesses
system.cpu.itb.align_faults                         0                       # Number of TLB faults due to alignment restrictions
system.cpu.itb.domain_faults                        0                       # Number of TLB faults due to domain restrictions
system.cpu.itb.flush_entries                        0                       # Number of entries that have been flushed from TLB
system.cpu.itb.flush_tlb                            0                       # Number of times complete TLB was flushed
system.cpu.itb.flush_tlb_asid                       0                       # Number of times TLB was flushed by ASID
system.cpu.itb.flush_tlb_mva                        0                       # Number of times TLB was flushed by MVA
system.cpu.itb.flush_tlb_mva_asid                   0                       # Number of times TLB was flushed by MVA & ASID
system.cpu.itb.hits                                 0                       # DTB hits
system.cpu.itb.inst_accesses                        0                       # ITB inst accesses
system.cpu.itb.inst_hits                            0                       # ITB inst hits
system.cpu.itb.inst_misses                          0                       # ITB inst misses
system.cpu.itb.misses                               0                       # DTB misses
system.cpu.itb.perms_faults                         0                       # Number of TLB faults due to permissions restrictions
system.cpu.itb.prefetch_faults                      0                       # Number of TLB faults due to prefetch
system.cpu.itb.read_accesses                        0                       # DTB read accesses
system.cpu.itb.read_hits                            0                       # DTB read hits
system.cpu.itb.read_misses                          0                       # DTB read misses
system.cpu.itb.stage2_mmu.stage2_tlb.accesses            0                       # DTB accesses
system.cpu.itb.stage2_mmu.stage2_tlb.align_faults            0                       # Number of TLB faults due to alignment restrictions
system.cpu.itb.stage2_mmu.stage2_tlb.domain_faults            0                       # Number of TLB faults due to domain restrictions
system.cpu.itb.stage2_mmu.stage2_tlb.flush_entries            0                       # Number of entries that have been flushed from TLB
system.cpu.itb.stage2_mmu.stage2_tlb.flush_tlb            0                       # Number of times complete TLB was flushed
system.cpu.itb.stage2_mmu.stage2_tlb.flush_tlb_asid            0                       # Number of times TLB was flushed by ASID
system.cpu.itb.stage2_mmu.stage2_tlb.flush_tlb_mva            0                       # Number of times TLB was flushed by MVA
system.cpu.itb.stage2_mmu.stage2_tlb.flush_tlb_mva_asid            0                       # Number of times TLB was flushed by MVA & ASID
system.cpu.itb.stage2_mmu.stage2_tlb.hits            0                       # DTB hits
system.cpu.itb.stage2_mmu.stage2_tlb.inst_accesses            0                       # ITB inst accesses
system.cpu.itb.stage2_mmu.stage2_tlb.inst_hits            0                       # ITB inst hits
system.cpu.itb.stage2_mmu.stage2_tlb.inst_misses            0                       # ITB inst misses
system.cpu.itb.stage2_mmu.stage2_tlb.misses            0                       # DTB misses
system.cpu.itb.stage2_mmu.stage2_tlb.perms_faults            0                       # Number of TLB faults due to permissions restrictions
system.cpu.itb.stage2_mmu.stage2_tlb.prefetch_faults            0                       # Number of TLB faults due to prefetch
system.cpu.itb.stage2_mmu.stage2_tlb.read_accesses            0                       # DTB read accesses
system.cpu.itb.stage2_mmu.stage2_tlb.read_hits            0                       # DTB read hits
system.cpu.itb.stage2_mmu.stage2_tlb.read_misses            0                       # DTB read misses
system.cpu.itb.stage2_mmu.stage2_tlb.walker.walkRequestOrigin_Requested::Data            0                       # Table walker requests started/completed, data/inst
system.cpu.itb.stage2_mmu.stage2_tlb.walker.walkRequestOrigin_Requested::Inst            0                       # Table walker requests started/completed, data/inst
system.cpu.itb.stage2_mmu.stage2_tlb.walker.walkRequestOrigin_Requested::total            0                       # Table walker requests started/completed, data/inst
system.cpu.itb.stage2_mmu.stage2_tlb.walker.walkRequestOrigin_Completed::Data            0                       # Table walker requests started/completed, data/inst
system.cpu.itb.stage2_mmu.stage2_tlb.walker.walkRequestOrigin_Completed::Inst            0                       # Table walker requests started/completed, data/inst
system.cpu.itb.stage2_mmu.stage2_tlb.walker.walkRequestOrigin_Completed::total            0                       # Table walker requests started/completed, data/inst
system.cpu.itb.stage2_mmu.stage2_tlb.walker.walkRequestOrigin::total            0                       # Table walker requests started/completed, data/inst
system.cpu.itb.stage2_mmu.stage2_tlb.walker.walks            0                       # Table walker walks requested
system.cpu.itb.stage2_mmu.stage2_tlb.write_accesses            0                       # DTB write accesses
system.cpu.itb.stage2_mmu.stage2_tlb.write_hits            0                       # DTB write hits
system.cpu.itb.stage2_mmu.stage2_tlb.write_misses            0                       # DTB write misses
system.cpu.itb.walker.walkRequestOrigin_Requested::Data            0                       # Table walker requests started/completed, data/inst
system.cpu.itb.walker.walkRequestOrigin_Requested::Inst            0                       # Table walker requests started/completed, data/inst
system.cpu.itb.walker.walkRequestOrigin_Requested::total            0                       # Table walker requests started/completed, data/inst
system.cpu.itb.walker.walkRequestOrigin_Completed::Data            0                       # Table walker requests started/completed, data/inst
system.cpu.itb.walker.walkRequestOrigin_Completed::Inst            0                       # Table walker requests started/completed, data/inst
system.cpu.itb.walker.walkRequestOrigin_Completed::total            0                       # Table walker requests started/completed, data/inst
system.cpu.itb.walker.walkRequestOrigin::total            0                       # Table walker requests started/completed, data/inst
system.cpu.itb.walker.walks                         0                       # Table walker walks requested
system.cpu.itb.write_accesses                       0                       # DTB write accesses
system.cpu.itb.write_hits                           0                       # DTB write hits
system.cpu.itb.write_misses                         0                       # DTB write misses
system.cpu.kern.inst.arm                            0                       # number of arm instructions executed
system.cpu.kern.inst.quiesce                      340                       # number of quiesce instructions executed
system.cpu.numCycles                          5321605                       # number of cpu cycles simulated
system.cpu.numFetchSuspends                       340                       # Number of times Execute suspended instruction fetching
system.cpu.numWorkItemsCompleted                    0                       # number of work items this cpu completed
system.cpu.numWorkItemsStarted                      0                       # number of work items this cpu started
system.cpu.op_class_0::No_OpClass                   0      0.00%      0.00% # Class of committed instruction
system.cpu.op_class_0::IntAlu                 1225331     69.46%     69.46% # Class of committed instruction
system.cpu.op_class_0::IntMult                   1211      0.07%     69.53% # Class of committed instruction
system.cpu.op_class_0::IntDiv                       0      0.00%     69.53% # Class of committed instruction
system.cpu.op_class_0::FloatAdd                     0      0.00%     69.53% # Class of committed instruction
system.cpu.op_class_0::FloatCmp                     0      0.00%     69.53% # Class of committed instruction
system.cpu.op_class_0::FloatCvt                     0      0.00%     69.53% # Class of committed instruction
system.cpu.op_class_0::FloatMult                    0      0.00%     69.53% # Class of committed instruction
system.cpu.op_class_0::FloatMultAcc                 0      0.00%     69.53% # Class of committed instruction
system.cpu.op_class_0::FloatDiv                     0      0.00%     69.53% # Class of committed instruction
system.cpu.op_class_0::FloatMisc                    0      0.00%     69.53% # Class of committed instruction
system.cpu.op_class_0::FloatSqrt                    0      0.00%     69.53% # Class of committed instruction
system.cpu.op_class_0::SimdAdd                      0      0.00%     69.53% # Class of committed instruction
system.cpu.op_class_0::SimdAddAcc                   0      0.00%     69.53% # Class of committed instruction
system.cpu.op_class_0::SimdAlu                      0      0.00%     69.53% # Class of committed instruction
system.cpu.op_class_0::SimdCmp                      0      0.00%     69.53% # Class of committed instruction
system.cpu.op_class_0::SimdCvt                      0      0.00%     69.53% # Class of committed instruction
system.cpu.op_class_0::SimdMisc                     0      0.00%     69.53% # Class of committed instruction
system.cpu.op_class_0::SimdMult                     0      0.00%     69.53% # Class of committed instruction
system.cpu.op_class_0::SimdMultAcc                  0      0.00%     69.53% # Class of committed instruction
system.cpu.op_class_0::SimdShift                    0      0.00%     69.53% # Class of committed instruction
system.cpu.op_class_0::SimdShiftAcc                 0      0.00%     69.53% # Class of committed instruction
system.cpu.op_class_0::SimdDiv                      0      0.00%     69.53% # Class of committed instruction
system.cpu.op_class_0::SimdSqrt                     0      0.00%     69.53% # Class of committed instruction
system.cpu.op_class_0::SimdFloatAdd                 0      0.00%     69.53% # Class of committed instruction
system.cpu.op_class_0::SimdFloatAlu                 0      0.00%     69.53% # Class of committed instruction
system.cpu.op_class_0::SimdFloatCmp                 0      0.00%     69.53% # Class of committed instruction
system.cpu.op_class_0::SimdFloatCvt                 0      0.00%     69.53% # Class of committed instruction
system.cpu.op_class_0::SimdFloatDiv                 0      0.00%     69.53% # Class of committed instruction
system.cpu.op_class_0::SimdFloatMisc                0      0.00%     69.53% # Class of committed instruction
system.cpu.op_class_0::SimdFloatMult                0      0.00%     69.53% # Class of committed instruction
system.cpu.op_class_0::SimdFloatMultAcc             0      0.00%     69.53% # Class of committed instruction
system.cpu.op_class_0::SimdFloatSqrt                0      0.00%     69.53% # Class of committed instruction
system.cpu.op_class_0::SimdReduceAdd                0      0.00%     69.53% # Class of committed instruction
system.cpu.op_class_0::SimdReduceAlu                0      0.00%     69.53% # Class of committed instruction
system.cpu.op_class_0::SimdReduceCmp                0      0.00%     69.53% # Class of committed instruction
system.cpu.op_class_0::SimdFloatReduceAdd            0      0.00%     69.53% # Class of committed instruction
system.cpu.op_class_0::SimdFloatReduceCmp            0      0.00%     69.53% # Class of committed instruction
system.cpu.op_class_0::SimdAes                      0      0.00%     69.53% # Class of committed instruction
system.cpu.op_class_0::SimdAesMix                   0      0.00%     69.53% # Class of committed instruction
system.cpu.op_class_0::SimdSha1Hash                 0      0.00%     69.53% # Class of committed instruction
system.cpu.op_class_0::SimdSha1Hash2                0      0.00%     69.53% # Class of committed instruction
system.cpu.op_class_0::SimdSha256Hash               0      0.00%     69.53% # Class of committed instruction
system.cpu.op_class_0::SimdSha256Hash2              0      0.00%     69.53% # Class of committed instruction
system.cpu.op_class_0::SimdShaSigma2                0      0.00%     69.53% # Class of committed instruction
system.cpu.op_class_0::SimdShaSigma3                0      0.00%     69.53% # Class of committed instruction
system.cpu.op_class_0::SimdPredAlu                  0      0.00%     69.53% # Class of committed instruction
system.cpu.op_class_0::MemRead                  89631      5.08%     74.61% # Class of committed instruction
system.cpu.op_class_0::MemWrite                447819     25.39%    100.00% # Class of committed instruction
system.cpu.op_class_0::FloatMemRead                 0      0.00%    100.00% # Class of committed instruction
system.cpu.op_class_0::FloatMemWrite                0      0.00%    100.00% # Class of committed instruction
system.cpu.op_class_0::IprAccess                    0      0.00%    100.00% # Class of committed instruction
system.cpu.op_class_0::InstPrefetch                 0      0.00%    100.00% # Class of committed instruction
system.cpu.op_class_0::total                  1763992                       # Class of committed instruction
system.cpu.quiesceCycles                     25568204                       # Total number of cycles that CPU has spent quiesced or waiting for an interrupt
system.cpu.tickCycles                         3566794                       # Number of cycles that the object actually ticked
system.membus.snoop_filter.hit_multi_requests          652                       # Number of requests hitting in the snoop filter with multiple (>1) holders of the requested data.
system.membus.snoop_filter.hit_multi_snoops            0                       # Number of snoops hitting in the snoop filter with multiple (>1) holders of the requested data.
system.membus.snoop_filter.hit_single_requests         3848                       # Number of requests hitting in the snoop filter with a single holder of the requested data.
system.membus.snoop_filter.hit_single_snoops            0                       # Number of snoops hitting in the snoop filter with a single holder of the requested data.
system.membus.snoop_filter.tot_requests        395502                       # Total number of requests made to the snoop filter.
system.membus.snoop_filter.tot_snoops               0                       # Total number of snoops made to the snoop filter.
system.bridge.pwrStateResidencyTicks::UNDEFINED  23206770000                       # Cumulative time (in ticks) in various power states
system.voltage_domain.voltage                       1                       # Voltage in Volts
system.iocache.pwrStateResidencyTicks::UNDEFINED  23206770000                       # Cumulative time (in ticks) in various power states
system.iocache.blocked_cycles::no_mshrs             0                       # number of cycles access was blocked
system.iocache.blocked_cycles::no_targets            0                       # number of cycles access was blocked
system.iocache.blocked::no_mshrs                    0                       # number of cycles access was blocked
system.iocache.blocked::no_targets                  0                       # number of cycles access was blocked
system.iocache.avg_blocked_cycles::no_mshrs          nan                       # average number of cycles each access was blocked
system.iocache.avg_blocked_cycles::no_targets          nan                       # average number of cycles each access was blocked
system.iocache.replacements                         0                       # number of replacements
system.iocache.tags.pwrStateResidencyTicks::UNDEFINED  23206770000                       # Cumulative time (in ticks) in various power states
system.iocache.tags.tagsinuse                       0                       # Cycle average of tags in use
system.iocache.tags.total_refs                      0                       # Total number of references to valid blocks.
system.iocache.tags.sampled_refs                    0                       # Sample count of references to valid blocks.
system.iocache.tags.avg_refs                      nan                       # Average number of references to valid blocks.
system.iocache.tags.warmup_cycle                    0                       # Cycle when the warmup percentage was hit.
system.iocache.tags.tag_accesses                    0                       # Number of tag accesses
system.iocache.tags.data_accesses                   0                       # Number of data accesses
system.membus.pwrStateResidencyTicks::UNDEFINED  23206770000                       # Cumulative time (in ticks) in various power states
system.membus.trans_dist::ReadReq              137894                       # Transaction distribution
system.membus.trans_dist::ReadResp             141763                       # Transaction distribution
system.membus.trans_dist::WriteReq              59798                       # Transaction distribution
system.membus.trans_dist::WriteResp             59798                       # Transaction distribution
system.membus.trans_dist::WritebackDirty          217                       # Transaction distribution
system.membus.trans_dist::WriteClean               22                       # Transaction distribution
system.membus.trans_dist::CleanEvict             3589                       # Transaction distribution
system.membus.trans_dist::ReadExReq               152                       # Transaction distribution
system.membus.trans_dist::ReadExResp              152                       # Transaction distribution
system.membus.trans_dist::ReadCleanReq           3626                       # Transaction distribution
system.membus.trans_dist::ReadSharedReq           244                       # Transaction distribution
system.membus.trans_dist::CleanInvalidReq       193834                       # Transaction distribution
system.membus.trans_dist::InvalidateReq        193834                       # Transaction distribution
system.membus.pkt_count_system.cpu.icache.mem_side::system.realview.bootmem.port        10666                       # Packet count per connected master and slave (bytes)
system.membus.pkt_count_system.cpu.icache.mem_side::total        10666                       # Packet count per connected master and slave (bytes)
system.membus.pkt_count_system.cpu.dcache.mem_side::system.realview.bootmem.port           66                       # Packet count per connected master and slave (bytes)
system.membus.pkt_count_system.cpu.dcache.mem_side::system.realview.gic.pio         1520                       # Packet count per connected master and slave (bytes)
system.membus.pkt_count_system.cpu.dcache.mem_side::system.mem_ctrls.port       388807                       # Packet count per connected master and slave (bytes)
system.membus.pkt_count_system.cpu.dcache.mem_side::system.acctest.mem2cls.slave         6196                       # Packet count per connected master and slave (bytes)
system.membus.pkt_count_system.cpu.dcache.mem_side::total       396589                       # Packet count per connected master and slave (bytes)
system.membus.pkt_count_system.acctest.coherency_bus.master[0]::system.mem_ctrls.port       387668                       # Packet count per connected master and slave (bytes)
system.membus.pkt_count_system.acctest.coherency_bus.master[0]::total       387668                       # Packet count per connected master and slave (bytes)
system.membus.pkt_count::total                 794923                       # Packet count per connected master and slave (bytes)
system.membus.pkt_size_system.cpu.icache.mem_side::system.realview.bootmem.port       232000                       # Cumulative packet size per connected master and slave (bytes)
system.membus.pkt_size_system.cpu.icache.mem_side::total       232000                       # Cumulative packet size per connected master and slave (bytes)
system.membus.pkt_size_system.cpu.dcache.mem_side::system.realview.bootmem.port         1856                       # Cumulative packet size per connected master and slave (bytes)
system.membus.pkt_size_system.cpu.dcache.mem_side::system.realview.gic.pio         3040                       # Cumulative packet size per connected master and slave (bytes)
system.membus.pkt_size_system.cpu.dcache.mem_side::system.mem_ctrls.port        38784                       # Cumulative packet size per connected master and slave (bytes)
system.membus.pkt_size_system.cpu.dcache.mem_side::system.acctest.mem2cls.slave         8396                       # Cumulative packet size per connected master and slave (bytes)
system.membus.pkt_size_system.cpu.dcache.mem_side::total        52076                       # Cumulative packet size per connected master and slave (bytes)
system.membus.pkt_size_system.acctest.coherency_bus.master[0]::system.mem_ctrls.port     12404892                       # Cumulative packet size per connected master and slave (bytes)
system.membus.pkt_size_system.acctest.coherency_bus.master[0]::total     12404892                       # Cumulative packet size per connected master and slave (bytes)
system.membus.pkt_size::total                12688968                       # Cumulative packet size per connected master and slave (bytes)
system.membus.snoops                                0                       # Total snoops (count)
system.membus.snoopTraffic                          0                       # Total snoop traffic (bytes)
system.membus.snoop_fanout::samples            589468                       # Request fanout histogram
system.membus.snoop_fanout::mean             0.001140                       # Request fanout histogram
system.membus.snoop_fanout::stdev            0.033745                       # Request fanout histogram
system.membus.snoop_fanout::underflows              0      0.00%      0.00% # Request fanout histogram
system.membus.snoop_fanout::0                  588796     99.89%     99.89% # Request fanout histogram
system.membus.snoop_fanout::1                     672      0.11%    100.00% # Request fanout histogram
system.membus.snoop_fanout::2                       0      0.00%    100.00% # Request fanout histogram
system.membus.snoop_fanout::3                       0      0.00%    100.00% # Request fanout histogram
system.membus.snoop_fanout::4                       0      0.00%    100.00% # Request fanout histogram
system.membus.snoop_fanout::overflows               0      0.00%    100.00% # Request fanout histogram
system.membus.snoop_fanout::min_value               0                       # Request fanout histogram
system.membus.snoop_fanout::max_value               1                       # Request fanout histogram
system.membus.snoop_fanout::total              589468                       # Request fanout histogram
system.membus.reqLayer6.occupancy           948438977                       # Layer occupancy (ticks)
system.membus.reqLayer6.utilization               4.9                       # Layer utilization (%)
system.membus.reqLayer7.occupancy             7869749                       # Layer occupancy (ticks)
system.membus.reqLayer7.utilization               0.0                       # Layer utilization (%)
system.membus.reqLayer1.occupancy            10301843                       # Layer occupancy (ticks)
system.membus.reqLayer1.utilization               0.1                       # Layer utilization (%)
system.membus.reqLayer2.occupancy             1504125                       # Layer occupancy (ticks)
system.membus.reqLayer2.utilization               0.0                       # Layer utilization (%)
system.membus.badaddr_responder.pwrStateResidencyTicks::UNDEFINED  23206770000                       # Cumulative time (in ticks) in various power states
system.membus.respLayer4.occupancy            6485710                       # Layer occupancy (ticks)
system.membus.respLayer4.utilization              0.0                       # Layer utilization (%)
system.membus.respLayer7.occupancy          818605055                       # Layer occupancy (ticks)
system.membus.respLayer7.utilization              4.2                       # Layer utilization (%)
system.membus.respLayer3.occupancy           18611750                       # Layer occupancy (ticks)
system.membus.respLayer3.utilization              0.1                       # Layer utilization (%)
system.acctest.harris_non_max0_spm.pwrStateResidencyTicks::UNDEFINED  23206770000                       # Cumulative time (in ticks) in various power states
system.acctest.elem_matrix2_spm.pwrStateResidencyTicks::UNDEFINED  23206770000                       # Cumulative time (in ticks) in various power states
system.acctest.elem_matrix3_spm.pwrStateResidencyTicks::UNDEFINED  23206770000                       # Cumulative time (in ticks) in various power states
system.acctest.local_bus.pwrStateResidencyTicks::UNDEFINED  23206770000                       # Cumulative time (in ticks) in various power states
system.acctest.local_bus.trans_dist::ReadReq       155136                       # Transaction distribution
system.acctest.local_bus.trans_dist::ReadResp       155136                       # Transaction distribution
system.acctest.local_bus.trans_dist::WriteReq       320620                       # Transaction distribution
system.acctest.local_bus.trans_dist::WriteResp       320620                       # Transaction distribution
system.acctest.local_bus.pkt_count_system.acctest.mem2cls.master::system.acctest.canny_non_max0.pio           12                       # Packet count per connected master and slave (bytes)
system.acctest.local_bus.pkt_count_system.acctest.mem2cls.master::system.acctest.canny_non_max0_dma.pio           28                       # Packet count per connected master and slave (bytes)
system.acctest.local_bus.pkt_count_system.acctest.mem2cls.master::system.acctest.convolution0.pio          260                       # Packet count per connected master and slave (bytes)
system.acctest.local_bus.pkt_count_system.acctest.mem2cls.master::system.acctest.convolution0_dma.pio          406                       # Packet count per connected master and slave (bytes)
system.acctest.local_bus.pkt_count_system.acctest.mem2cls.master::system.acctest.edge_tracking0.pio           16                       # Packet count per connected master and slave (bytes)
system.acctest.local_bus.pkt_count_system.acctest.mem2cls.master::system.acctest.edge_tracking0_dma.pio           28                       # Packet count per connected master and slave (bytes)
system.acctest.local_bus.pkt_count_system.acctest.mem2cls.master::system.acctest.elem_matrix0.pio         2700                       # Packet count per connected master and slave (bytes)
system.acctest.local_bus.pkt_count_system.acctest.mem2cls.master::system.acctest.elem_matrix0_dma.pio         2604                       # Packet count per connected master and slave (bytes)
system.acctest.local_bus.pkt_count_system.acctest.mem2cls.master::system.acctest.grayscale0.pio           20                       # Packet count per connected master and slave (bytes)
system.acctest.local_bus.pkt_count_system.acctest.mem2cls.master::system.acctest.grayscale0_dma.pio           56                       # Packet count per connected master and slave (bytes)
system.acctest.local_bus.pkt_count_system.acctest.mem2cls.master::system.acctest.isp0.pio           24                       # Packet count per connected master and slave (bytes)
system.acctest.local_bus.pkt_count_system.acctest.mem2cls.master::system.acctest.isp0_dma.pio           42                       # Packet count per connected master and slave (bytes)
system.acctest.local_bus.pkt_count_system.acctest.mem2cls.master::total         6196                       # Packet count per connected master and slave (bytes)
system.acctest.local_bus.pkt_count_system.acctest.canny_non_max0_dma.dma::system.acctest.canny_non_max0_spm.port         8192                       # Packet count per connected master and slave (bytes)
system.acctest.local_bus.pkt_count_system.acctest.canny_non_max0_dma.dma::system.acctest.elem_matrix0_spm.port         4096                       # Packet count per connected master and slave (bytes)
system.acctest.local_bus.pkt_count_system.acctest.canny_non_max0_dma.dma::total        12288                       # Packet count per connected master and slave (bytes)
system.acctest.local_bus.pkt_count_system.acctest.convolution0_dma.dma::system.acctest.convolution0_spm.port        65632                       # Packet count per connected master and slave (bytes)
system.acctest.local_bus.pkt_count_system.acctest.convolution0_dma.dma::system.acctest.elem_matrix0_spm.port        28672                       # Packet count per connected master and slave (bytes)
system.acctest.local_bus.pkt_count_system.acctest.convolution0_dma.dma::system.acctest.grayscale0_spm.port         4096                       # Packet count per connected master and slave (bytes)
system.acctest.local_bus.pkt_count_system.acctest.convolution0_dma.dma::total        98400                       # Packet count per connected master and slave (bytes)
system.acctest.local_bus.pkt_count_system.acctest.edge_tracking0_dma.dma::system.acctest.canny_non_max0_spm.port         4096                       # Packet count per connected master and slave (bytes)
system.acctest.local_bus.pkt_count_system.acctest.edge_tracking0_dma.dma::system.acctest.edge_tracking0_spm.port         5120                       # Packet count per connected master and slave (bytes)
system.acctest.local_bus.pkt_count_system.acctest.edge_tracking0_dma.dma::total         9216                       # Packet count per connected master and slave (bytes)
system.acctest.local_bus.pkt_count_system.acctest.elem_matrix0_dma.dma::system.acctest.convolution0_spm.port        40960                       # Packet count per connected master and slave (bytes)
system.acctest.local_bus.pkt_count_system.acctest.elem_matrix0_dma.dma::system.acctest.elem_matrix0_spm.port       761856                       # Packet count per connected master and slave (bytes)
system.acctest.local_bus.pkt_count_system.acctest.elem_matrix0_dma.dma::total       802816                       # Packet count per connected master and slave (bytes)
system.acctest.local_bus.pkt_count_system.acctest.grayscale0_dma.dma::system.acctest.grayscale0_spm.port        14336                       # Packet count per connected master and slave (bytes)
system.acctest.local_bus.pkt_count_system.acctest.grayscale0_dma.dma::system.acctest.isp0_spm.port         3072                       # Packet count per connected master and slave (bytes)
system.acctest.local_bus.pkt_count_system.acctest.grayscale0_dma.dma::total        17408                       # Packet count per connected master and slave (bytes)
system.acctest.local_bus.pkt_count_system.acctest.isp0_dma.dma::system.acctest.isp0_spm.port         5188                       # Packet count per connected master and slave (bytes)
system.acctest.local_bus.pkt_count_system.acctest.isp0_dma.dma::total         5188                       # Packet count per connected master and slave (bytes)
system.acctest.local_bus.pkt_count::total       951512                       # Packet count per connected master and slave (bytes)
system.acctest.local_bus.pkt_size_system.acctest.mem2cls.master::system.acctest.canny_non_max0.pio           15                       # Cumulative packet size per connected master and slave (bytes)
system.acctest.local_bus.pkt_size_system.acctest.mem2cls.master::system.acctest.canny_non_max0_dma.pio           44                       # Cumulative packet size per connected master and slave (bytes)
system.acctest.local_bus.pkt_size_system.acctest.mem2cls.master::system.acctest.convolution0.pio          364                       # Cumulative packet size per connected master and slave (bytes)
system.acctest.local_bus.pkt_size_system.acctest.mem2cls.master::system.acctest.convolution0_dma.pio          638                       # Cumulative packet size per connected master and slave (bytes)
system.acctest.local_bus.pkt_size_system.acctest.mem2cls.master::system.acctest.edge_tracking0.pio           23                       # Cumulative packet size per connected master and slave (bytes)
system.acctest.local_bus.pkt_size_system.acctest.mem2cls.master::system.acctest.edge_tracking0_dma.pio           44                       # Cumulative packet size per connected master and slave (bytes)
system.acctest.local_bus.pkt_size_system.acctest.mem2cls.master::system.acctest.elem_matrix0.pio         2970                       # Cumulative packet size per connected master and slave (bytes)
system.acctest.local_bus.pkt_size_system.acctest.mem2cls.master::system.acctest.elem_matrix0_dma.pio         4092                       # Cumulative packet size per connected master and slave (bytes)
system.acctest.local_bus.pkt_size_system.acctest.mem2cls.master::system.acctest.grayscale0.pio           22                       # Cumulative packet size per connected master and slave (bytes)
system.acctest.local_bus.pkt_size_system.acctest.mem2cls.master::system.acctest.grayscale0_dma.pio           88                       # Cumulative packet size per connected master and slave (bytes)
system.acctest.local_bus.pkt_size_system.acctest.mem2cls.master::system.acctest.isp0.pio           30                       # Cumulative packet size per connected master and slave (bytes)
system.acctest.local_bus.pkt_size_system.acctest.mem2cls.master::system.acctest.isp0_dma.pio           66                       # Cumulative packet size per connected master and slave (bytes)
system.acctest.local_bus.pkt_size_system.acctest.mem2cls.master::total         8396                       # Cumulative packet size per connected master and slave (bytes)
system.acctest.local_bus.pkt_size_system.acctest.canny_non_max0_dma.dma::system.acctest.canny_non_max0_spm.port       131072                       # Cumulative packet size per connected master and slave (bytes)
system.acctest.local_bus.pkt_size_system.acctest.canny_non_max0_dma.dma::system.acctest.elem_matrix0_spm.port        65536                       # Cumulative packet size per connected master and slave (bytes)
system.acctest.local_bus.pkt_size_system.acctest.canny_non_max0_dma.dma::total       196608                       # Cumulative packet size per connected master and slave (bytes)
system.acctest.local_bus.pkt_size_system.acctest.convolution0_dma.dma::system.acctest.convolution0_spm.port      1049748                       # Cumulative packet size per connected master and slave (bytes)
system.acctest.local_bus.pkt_size_system.acctest.convolution0_dma.dma::system.acctest.elem_matrix0_spm.port       458752                       # Cumulative packet size per connected master and slave (bytes)
system.acctest.local_bus.pkt_size_system.acctest.convolution0_dma.dma::system.acctest.grayscale0_spm.port        65536                       # Cumulative packet size per connected master and slave (bytes)
system.acctest.local_bus.pkt_size_system.acctest.convolution0_dma.dma::total      1574036                       # Cumulative packet size per connected master and slave (bytes)
system.acctest.local_bus.pkt_size_system.acctest.edge_tracking0_dma.dma::system.acctest.canny_non_max0_spm.port        65536                       # Cumulative packet size per connected master and slave (bytes)
system.acctest.local_bus.pkt_size_system.acctest.edge_tracking0_dma.dma::system.acctest.edge_tracking0_spm.port        81920                       # Cumulative packet size per connected master and slave (bytes)
system.acctest.local_bus.pkt_size_system.acctest.edge_tracking0_dma.dma::total       147456                       # Cumulative packet size per connected master and slave (bytes)
system.acctest.local_bus.pkt_size_system.acctest.elem_matrix0_dma.dma::system.acctest.convolution0_spm.port       655360                       # Cumulative packet size per connected master and slave (bytes)
system.acctest.local_bus.pkt_size_system.acctest.elem_matrix0_dma.dma::system.acctest.elem_matrix0_spm.port     12189696                       # Cumulative packet size per connected master and slave (bytes)
system.acctest.local_bus.pkt_size_system.acctest.elem_matrix0_dma.dma::total     12845056                       # Cumulative packet size per connected master and slave (bytes)
system.acctest.local_bus.pkt_size_system.acctest.grayscale0_dma.dma::system.acctest.grayscale0_spm.port       229376                       # Cumulative packet size per connected master and slave (bytes)
system.acctest.local_bus.pkt_size_system.acctest.grayscale0_dma.dma::system.acctest.isp0_spm.port        49152                       # Cumulative packet size per connected master and slave (bytes)
system.acctest.local_bus.pkt_size_system.acctest.grayscale0_dma.dma::total       278528                       # Cumulative packet size per connected master and slave (bytes)
system.acctest.local_bus.pkt_size_system.acctest.isp0_dma.dma::system.acctest.isp0_spm.port        82952                       # Cumulative packet size per connected master and slave (bytes)
system.acctest.local_bus.pkt_size_system.acctest.isp0_dma.dma::total        82952                       # Cumulative packet size per connected master and slave (bytes)
system.acctest.local_bus.pkt_size::total     15133032                       # Cumulative packet size per connected master and slave (bytes)
system.acctest.local_bus.occupancy         1555543750                       # Network occupancy (ticks)
system.acctest.local_bus.utilization              8.1                       # Network utilization (%)
system.acctest.local_bus.reqLayer0.occupancy   1300298538                       # Layer occupancy (ticks)
system.acctest.local_bus.reqLayer0.utilization          6.7                       # Layer utilization (%)
system.acctest.local_bus.respLayer0.occupancy    787564000                       # Layer occupancy (ticks)
system.acctest.local_bus.respLayer0.utilization          4.1                       # Layer utilization (%)
system.acctest.isp0.pwrStateResidencyTicks::UNDEFINED  23206770000                       # Cumulative time (in ticks) in various power states
system.acctest.edge_tracking0.pwrStateResidencyTicks::UNDEFINED  23206770000                       # Cumulative time (in ticks) in various power states
system.acctest.grayscale0_spm.pwrStateResidencyTicks::UNDEFINED  23206770000                       # Cumulative time (in ticks) in various power states
system.acctest.grayscale0_spm.bytes_read::.acctest.convolution0_dma        65536                       # Number of bytes read from this memory
system.acctest.grayscale0_spm.bytes_read::.acctest.grayscale0.system.acctest.grayscale0        98304                       # Number of bytes read from this memory
system.acctest.grayscale0_spm.bytes_read::.acctest.grayscale0_dma       131072                       # Number of bytes read from this memory
system.acctest.grayscale0_spm.bytes_read::total       294912                       # Number of bytes read from this memory
system.acctest.grayscale0_spm.bytes_written::.acctest.grayscale0.system.acctest.grayscale0       131072                       # Number of bytes written to this memory
system.acctest.grayscale0_spm.bytes_written::.acctest.grayscale0_dma        98304                       # Number of bytes written to this memory
system.acctest.grayscale0_spm.bytes_written::total       229376                       # Number of bytes written to this memory
system.acctest.grayscale0_spm.num_reads::.acctest.convolution0_dma         2048                       # Number of read requests responded to by this memory
system.acctest.grayscale0_spm.num_reads::.acctest.grayscale0.system.acctest.grayscale0        98304                       # Number of read requests responded to by this memory
system.acctest.grayscale0_spm.num_reads::.acctest.grayscale0_dma         4096                       # Number of read requests responded to by this memory
system.acctest.grayscale0_spm.num_reads::total       104448                       # Number of read requests responded to by this memory
system.acctest.grayscale0_spm.num_writes::.acctest.grayscale0.system.acctest.grayscale0        32768                       # Number of write requests responded to by this memory
system.acctest.grayscale0_spm.num_writes::.acctest.grayscale0_dma         3072                       # Number of write requests responded to by this memory
system.acctest.grayscale0_spm.num_writes::total        35840                       # Number of write requests responded to by this memory
system.acctest.grayscale0_spm.bw_read::.acctest.convolution0_dma      3394569                       # Total read bandwidth from this memory (bytes/s)
system.acctest.grayscale0_spm.bw_read::.acctest.grayscale0.system.acctest.grayscale0      5091854                       # Total read bandwidth from this memory (bytes/s)
system.acctest.grayscale0_spm.bw_read::.acctest.grayscale0_dma      6789139                       # Total read bandwidth from this memory (bytes/s)
system.acctest.grayscale0_spm.bw_read::total     15275562                       # Total read bandwidth from this memory (bytes/s)
system.acctest.grayscale0_spm.bw_write::.acctest.grayscale0.system.acctest.grayscale0      6789139                       # Write bandwidth from this memory (bytes/s)
system.acctest.grayscale0_spm.bw_write::.acctest.grayscale0_dma      5091854                       # Write bandwidth from this memory (bytes/s)
system.acctest.grayscale0_spm.bw_write::total     11880993                       # Write bandwidth from this memory (bytes/s)
system.acctest.grayscale0_spm.bw_total::.acctest.convolution0_dma      3394569                       # Total bandwidth to/from this memory (bytes/s)
system.acctest.grayscale0_spm.bw_total::.acctest.grayscale0.system.acctest.grayscale0     11880993                       # Total bandwidth to/from this memory (bytes/s)
system.acctest.grayscale0_spm.bw_total::.acctest.grayscale0_dma     11880993                       # Total bandwidth to/from this memory (bytes/s)
system.acctest.grayscale0_spm.bw_total::total     27156555                       # Total bandwidth to/from this memory (bytes/s)
system.acctest.elem_matrix1_dma.pwrStateResidencyTicks::UNDEFINED  23206770000                       # Cumulative time (in ticks) in various power states
system.acctest.mem2cls.pwrStateResidencyTicks::UNDEFINED  23206770000                       # Cumulative time (in ticks) in various power states
system.acctest.isp0_dma.pwrStateResidencyTicks::UNDEFINED  23206770000                       # Cumulative time (in ticks) in various power states
system.acctest.grayscale0_dma.pwrStateResidencyTicks::UNDEFINED  23206770000                       # Cumulative time (in ticks) in various power states
system.acctest.convolution0.pwrStateResidencyTicks::UNDEFINED  23206770000                       # Cumulative time (in ticks) in various power states
system.acctest.convolution1.pwrStateResidencyTicks::UNDEFINED  23206770000                       # Cumulative time (in ticks) in various power states
system.acctest.isp0_spm.pwrStateResidencyTicks::UNDEFINED  23206770000                       # Cumulative time (in ticks) in various power states
system.acctest.isp0_spm.bytes_read::.acctest.grayscale0_dma        49152                       # Number of bytes read from this memory
system.acctest.isp0_spm.bytes_read::.acctest.isp0.system.acctest.isp0       229376                       # Number of bytes read from this memory
system.acctest.isp0_spm.bytes_read::.acctest.isp0_dma        49152                       # Number of bytes read from this memory
system.acctest.isp0_spm.bytes_read::total       327680                       # Number of bytes read from this memory
system.acctest.isp0_spm.bytes_written::.acctest.isp0.system.acctest.isp0        98304                       # Number of bytes written to this memory
system.acctest.isp0_spm.bytes_written::.acctest.isp0_dma        33800                       # Number of bytes written to this memory
system.acctest.isp0_spm.bytes_written::total       132104                       # Number of bytes written to this memory
system.acctest.isp0_spm.num_reads::.acctest.grayscale0_dma         1536                       # Number of read requests responded to by this memory
system.acctest.isp0_spm.num_reads::.acctest.isp0.system.acctest.isp0       229376                       # Number of read requests responded to by this memory
system.acctest.isp0_spm.num_reads::.acctest.isp0_dma         1536                       # Number of read requests responded to by this memory
system.acctest.isp0_spm.num_reads::total       232448                       # Number of read requests responded to by this memory
system.acctest.isp0_spm.num_writes::.acctest.isp0.system.acctest.isp0        98304                       # Number of write requests responded to by this memory
system.acctest.isp0_spm.num_writes::.acctest.isp0_dma         1058                       # Number of write requests responded to by this memory
system.acctest.isp0_spm.num_writes::total        99362                       # Number of write requests responded to by this memory
system.acctest.isp0_spm.bw_read::.acctest.grayscale0_dma      2545927                       # Total read bandwidth from this memory (bytes/s)
system.acctest.isp0_spm.bw_read::.acctest.isp0.system.acctest.isp0     11880993                       # Total read bandwidth from this memory (bytes/s)
system.acctest.isp0_spm.bw_read::.acctest.isp0_dma      2545927                       # Total read bandwidth from this memory (bytes/s)
system.acctest.isp0_spm.bw_read::total       16972847                       # Total read bandwidth from this memory (bytes/s)
system.acctest.isp0_spm.bw_write::.acctest.isp0.system.acctest.isp0      5091854                       # Write bandwidth from this memory (bytes/s)
system.acctest.isp0_spm.bw_write::.acctest.isp0_dma      1750739                       # Write bandwidth from this memory (bytes/s)
system.acctest.isp0_spm.bw_write::total       6842593                       # Write bandwidth from this memory (bytes/s)
system.acctest.isp0_spm.bw_total::.acctest.grayscale0_dma      2545927                       # Total bandwidth to/from this memory (bytes/s)
system.acctest.isp0_spm.bw_total::.acctest.isp0.system.acctest.isp0     16972847                       # Total bandwidth to/from this memory (bytes/s)
system.acctest.isp0_spm.bw_total::.acctest.isp0_dma      4296666                       # Total bandwidth to/from this memory (bytes/s)
system.acctest.isp0_spm.bw_total::total      23815440                       # Total bandwidth to/from this memory (bytes/s)
system.acctest.coherency_bus.pwrStateResidencyTicks::UNDEFINED  23206770000                       # Cumulative time (in ticks) in various power states
system.acctest.coherency_bus.trans_dist::ReadReq       137514                       # Transaction distribution
system.acctest.coherency_bus.trans_dist::ReadResp       137514                       # Transaction distribution
system.acctest.coherency_bus.trans_dist::WriteReq        56320                       # Transaction distribution
system.acctest.coherency_bus.trans_dist::WriteResp        56320                       # Transaction distribution
system.acctest.coherency_bus.pkt_count_system.acctest.canny_non_max0_dma.dma::system.membus.slave[7]         2048                       # Packet count per connected master and slave (bytes)
system.acctest.coherency_bus.pkt_count_system.acctest.convolution0_dma.dma::system.membus.slave[7]        16432                       # Packet count per connected master and slave (bytes)
system.acctest.coherency_bus.pkt_count_system.acctest.edge_tracking0_dma.dma::system.membus.slave[7]          512                       # Packet count per connected master and slave (bytes)
system.acctest.coherency_bus.pkt_count_system.acctest.elem_matrix0_dma.dma::system.membus.slave[7]       360448                       # Packet count per connected master and slave (bytes)
system.acctest.coherency_bus.pkt_count_system.acctest.grayscale0_dma.dma::system.membus.slave[7]         5632                       # Packet count per connected master and slave (bytes)
system.acctest.coherency_bus.pkt_count_system.acctest.isp0_dma.dma::system.membus.slave[7]         2596                       # Packet count per connected master and slave (bytes)
system.acctest.coherency_bus.pkt_count::total       387668                       # Packet count per connected master and slave (bytes)
system.acctest.coherency_bus.pkt_size_system.acctest.canny_non_max0_dma.dma::system.membus.slave[7]        65536                       # Cumulative packet size per connected master and slave (bytes)
system.acctest.coherency_bus.pkt_size_system.acctest.convolution0_dma.dma::system.membus.slave[7]       525460                       # Cumulative packet size per connected master and slave (bytes)
system.acctest.coherency_bus.pkt_size_system.acctest.edge_tracking0_dma.dma::system.membus.slave[7]        16384                       # Cumulative packet size per connected master and slave (bytes)
system.acctest.coherency_bus.pkt_size_system.acctest.elem_matrix0_dma.dma::system.membus.slave[7]     11534336                       # Cumulative packet size per connected master and slave (bytes)
system.acctest.coherency_bus.pkt_size_system.acctest.grayscale0_dma.dma::system.membus.slave[7]       180224                       # Cumulative packet size per connected master and slave (bytes)
system.acctest.coherency_bus.pkt_size_system.acctest.isp0_dma.dma::system.membus.slave[7]        82952                       # Cumulative packet size per connected master and slave (bytes)
system.acctest.coherency_bus.pkt_size::total     12404892                       # Cumulative packet size per connected master and slave (bytes)
system.acctest.coherency_bus.snoops                 0                       # Total snoops (count)
system.acctest.coherency_bus.snoopTraffic            0                       # Total snoop traffic (bytes)
system.acctest.coherency_bus.snoop_fanout::samples       230523                       # Request fanout histogram
system.acctest.coherency_bus.snoop_fanout::mean            0                       # Request fanout histogram
system.acctest.coherency_bus.snoop_fanout::stdev            0                       # Request fanout histogram
system.acctest.coherency_bus.snoop_fanout::underflows            0      0.00%      0.00% # Request fanout histogram
system.acctest.coherency_bus.snoop_fanout::0       230523    100.00%    100.00% # Request fanout histogram
system.acctest.coherency_bus.snoop_fanout::overflows            0      0.00%    100.00% # Request fanout histogram
system.acctest.coherency_bus.snoop_fanout::min_value            0                       # Request fanout histogram
system.acctest.coherency_bus.snoop_fanout::max_value            0                       # Request fanout histogram
system.acctest.coherency_bus.snoop_fanout::total       230523                       # Request fanout histogram
system.acctest.coherency_bus.reqLayer0.occupancy    502569875                       # Layer occupancy (ticks)
system.acctest.coherency_bus.reqLayer0.utilization          2.6                       # Layer utilization (%)
system.acctest.coherency_bus.respLayer0.occupancy    743871000                       # Layer occupancy (ticks)
system.acctest.coherency_bus.respLayer0.utilization          3.9                       # Layer utilization (%)
system.acctest.convolution0_spm.pwrStateResidencyTicks::UNDEFINED  23206770000                       # Cumulative time (in ticks) in various power states
system.acctest.convolution0_spm.bytes_read::.acctest.convolution0.system.acctest.convolution0     37706912                       # Number of bytes read from this memory
system.acctest.convolution0_spm.bytes_read::.acctest.convolution0_dma       262144                       # Number of bytes read from this memory
system.acctest.convolution0_spm.bytes_read::.acctest.elem_matrix0_dma       655360                       # Number of bytes read from this memory
system.acctest.convolution0_spm.bytes_read::total     38624416                       # Number of bytes read from this memory
system.acctest.convolution0_spm.bytes_written::.acctest.convolution0.system.acctest.convolution0       851968                       # Number of bytes written to this memory
system.acctest.convolution0_spm.bytes_written::.acctest.convolution0_dma       787604                       # Number of bytes written to this memory
system.acctest.convolution0_spm.bytes_written::total      1639572                       # Number of bytes written to this memory
system.acctest.convolution0_spm.num_reads::.acctest.convolution0.system.acctest.convolution0      9426728                       # Number of read requests responded to by this memory
system.acctest.convolution0_spm.num_reads::.acctest.convolution0_dma         8192                       # Number of read requests responded to by this memory
system.acctest.convolution0_spm.num_reads::.acctest.elem_matrix0_dma        20480                       # Number of read requests responded to by this memory
system.acctest.convolution0_spm.num_reads::total      9455400                       # Number of read requests responded to by this memory
system.acctest.convolution0_spm.num_writes::.acctest.convolution0.system.acctest.convolution0       212992                       # Number of write requests responded to by this memory
system.acctest.convolution0_spm.num_writes::.acctest.convolution0_dma        24624                       # Number of write requests responded to by this memory
system.acctest.convolution0_spm.num_writes::total       237616                       # Number of write requests responded to by this memory
system.acctest.convolution0_spm.bw_read::.acctest.convolution0.system.acctest.convolution0   1953105608                       # Total read bandwidth from this memory (bytes/s)
system.acctest.convolution0_spm.bw_read::.acctest.convolution0_dma     13578278                       # Total read bandwidth from this memory (bytes/s)
system.acctest.convolution0_spm.bw_read::.acctest.elem_matrix0_dma     33945694                       # Total read bandwidth from this memory (bytes/s)
system.acctest.convolution0_spm.bw_read::total   2000629580                       # Total read bandwidth from this memory (bytes/s)
system.acctest.convolution0_spm.bw_write::.acctest.convolution0.system.acctest.convolution0     44129402                       # Write bandwidth from this memory (bytes/s)
system.acctest.convolution0_spm.bw_write::.acctest.convolution0_dma     40795539                       # Write bandwidth from this memory (bytes/s)
system.acctest.convolution0_spm.bw_write::total     84924941                       # Write bandwidth from this memory (bytes/s)
system.acctest.convolution0_spm.bw_total::.acctest.convolution0.system.acctest.convolution0   1997235010                       # Total bandwidth to/from this memory (bytes/s)
system.acctest.convolution0_spm.bw_total::.acctest.convolution0_dma     54373816                       # Total bandwidth to/from this memory (bytes/s)
system.acctest.convolution0_spm.bw_total::.acctest.elem_matrix0_dma     33945694                       # Total bandwidth to/from this memory (bytes/s)
system.acctest.convolution0_spm.bw_total::total   2085554521                       # Total bandwidth to/from this memory (bytes/s)
system.acctest.elem_matrix0_dma.pwrStateResidencyTicks::UNDEFINED  23206770000                       # Cumulative time (in ticks) in various power states
system.acctest.grayscale0.pwrStateResidencyTicks::UNDEFINED  23206770000                       # Cumulative time (in ticks) in various power states
system.acctest.canny_non_max0.pwrStateResidencyTicks::UNDEFINED  23206770000                       # Cumulative time (in ticks) in various power states
system.acctest.elem_matrix0_spm.pwrStateResidencyTicks::UNDEFINED  23206770000                       # Cumulative time (in ticks) in various power states
system.acctest.elem_matrix0_spm.bytes_read::.acctest.canny_non_max0_dma        65536                       # Number of bytes read from this memory
system.acctest.elem_matrix0_spm.bytes_read::.acctest.convolution0_dma       458752                       # Number of bytes read from this memory
system.acctest.elem_matrix0_spm.bytes_read::.acctest.elem_matrix0.system.acctest.elem_matrix0     15925248                       # Number of bytes read from this memory
system.acctest.elem_matrix0_spm.bytes_read::.acctest.elem_matrix0_dma      3145728                       # Number of bytes read from this memory
system.acctest.elem_matrix0_spm.bytes_read::total     19595264                       # Number of bytes read from this memory
system.acctest.elem_matrix0_spm.bytes_written::.acctest.elem_matrix0.system.acctest.elem_matrix0      8847360                       # Number of bytes written to this memory
system.acctest.elem_matrix0_spm.bytes_written::.acctest.elem_matrix0_dma      9043968                       # Number of bytes written to this memory
system.acctest.elem_matrix0_spm.bytes_written::total     17891328                       # Number of bytes written to this memory
system.acctest.elem_matrix0_spm.num_reads::.acctest.canny_non_max0_dma         2048                       # Number of read requests responded to by this memory
system.acctest.elem_matrix0_spm.num_reads::.acctest.convolution0_dma        14336                       # Number of read requests responded to by this memory
system.acctest.elem_matrix0_spm.num_reads::.acctest.elem_matrix0.system.acctest.elem_matrix0      3981312                       # Number of read requests responded to by this memory
system.acctest.elem_matrix0_spm.num_reads::.acctest.elem_matrix0_dma        98304                       # Number of read requests responded to by this memory
system.acctest.elem_matrix0_spm.num_reads::total      4096000                       # Number of read requests responded to by this memory
system.acctest.elem_matrix0_spm.num_writes::.acctest.elem_matrix0.system.acctest.elem_matrix0      2211840                       # Number of write requests responded to by this memory
system.acctest.elem_matrix0_spm.num_writes::.acctest.elem_matrix0_dma       282624                       # Number of write requests responded to by this memory
system.acctest.elem_matrix0_spm.num_writes::total      2494464                       # Number of write requests responded to by this memory
system.acctest.elem_matrix0_spm.bw_read::.acctest.canny_non_max0_dma      3394569                       # Total read bandwidth from this memory (bytes/s)
system.acctest.elem_matrix0_spm.bw_read::.acctest.convolution0_dma     23761986                       # Total read bandwidth from this memory (bytes/s)
system.acctest.elem_matrix0_spm.bw_read::.acctest.elem_matrix0.system.acctest.elem_matrix0    824880361                       # Total read bandwidth from this memory (bytes/s)
system.acctest.elem_matrix0_spm.bw_read::.acctest.elem_matrix0_dma    162939331                       # Total read bandwidth from this memory (bytes/s)
system.acctest.elem_matrix0_spm.bw_read::total   1014976247                       # Total read bandwidth from this memory (bytes/s)
system.acctest.elem_matrix0_spm.bw_write::.acctest.elem_matrix0.system.acctest.elem_matrix0    458266867                       # Write bandwidth from this memory (bytes/s)
system.acctest.elem_matrix0_spm.bw_write::.acctest.elem_matrix0_dma    468450575                       # Write bandwidth from this memory (bytes/s)
system.acctest.elem_matrix0_spm.bw_write::total    926717443                       # Write bandwidth from this memory (bytes/s)
system.acctest.elem_matrix0_spm.bw_total::.acctest.canny_non_max0_dma      3394569                       # Total bandwidth to/from this memory (bytes/s)
system.acctest.elem_matrix0_spm.bw_total::.acctest.convolution0_dma     23761986                       # Total bandwidth to/from this memory (bytes/s)
system.acctest.elem_matrix0_spm.bw_total::.acctest.elem_matrix0.system.acctest.elem_matrix0   1283147228                       # Total bandwidth to/from this memory (bytes/s)
system.acctest.elem_matrix0_spm.bw_total::.acctest.elem_matrix0_dma    631389906                       # Total bandwidth to/from this memory (bytes/s)
system.acctest.elem_matrix0_spm.bw_total::total   1941693689                       # Total bandwidth to/from this memory (bytes/s)
system.acctest.convolution0_dma.pwrStateResidencyTicks::UNDEFINED  23206770000                       # Cumulative time (in ticks) in various power states
system.acctest.convolution1_spm.pwrStateResidencyTicks::UNDEFINED  23206770000                       # Cumulative time (in ticks) in various power states
system.acctest.elem_matrix3_dma.pwrStateResidencyTicks::UNDEFINED  23206770000                       # Cumulative time (in ticks) in various power states
system.acctest.edge_tracking0_spm.pwrStateResidencyTicks::UNDEFINED  23206770000                       # Cumulative time (in ticks) in various power states
system.acctest.edge_tracking0_spm.bytes_read::.acctest.edge_tracking0.system.acctest.edge_tracking0       194576                       # Number of bytes read from this memory
system.acctest.edge_tracking0_spm.bytes_read::.acctest.edge_tracking0_dma        16384                       # Number of bytes read from this memory
system.acctest.edge_tracking0_spm.bytes_read::total       210960                       # Number of bytes read from this memory
system.acctest.edge_tracking0_spm.bytes_written::.acctest.edge_tracking0.system.acctest.edge_tracking0        81920                       # Number of bytes written to this memory
system.acctest.edge_tracking0_spm.bytes_written::.acctest.edge_tracking0_dma        65536                       # Number of bytes written to this memory
system.acctest.edge_tracking0_spm.bytes_written::total       147456                       # Number of bytes written to this memory
system.acctest.edge_tracking0_spm.num_reads::.acctest.edge_tracking0.system.acctest.edge_tracking0        48644                       # Number of read requests responded to by this memory
system.acctest.edge_tracking0_spm.num_reads::.acctest.edge_tracking0_dma          512                       # Number of read requests responded to by this memory
system.acctest.edge_tracking0_spm.num_reads::total        49156                       # Number of read requests responded to by this memory
system.acctest.edge_tracking0_spm.num_writes::.acctest.edge_tracking0.system.acctest.edge_tracking0        32768                       # Number of write requests responded to by this memory
system.acctest.edge_tracking0_spm.num_writes::.acctest.edge_tracking0_dma         2048                       # Number of write requests responded to by this memory
system.acctest.edge_tracking0_spm.num_writes::total        34816                       # Number of write requests responded to by this memory
system.acctest.edge_tracking0_spm.bw_read::.acctest.edge_tracking0.system.acctest.edge_tracking0     10078457                       # Total read bandwidth from this memory (bytes/s)
system.acctest.edge_tracking0_spm.bw_read::.acctest.edge_tracking0_dma       848642                       # Total read bandwidth from this memory (bytes/s)
system.acctest.edge_tracking0_spm.bw_read::total     10927099                       # Total read bandwidth from this memory (bytes/s)
system.acctest.edge_tracking0_spm.bw_write::.acctest.edge_tracking0.system.acctest.edge_tracking0      4243212                       # Write bandwidth from this memory (bytes/s)
system.acctest.edge_tracking0_spm.bw_write::.acctest.edge_tracking0_dma      3394569                       # Write bandwidth from this memory (bytes/s)
system.acctest.edge_tracking0_spm.bw_write::total      7637781                       # Write bandwidth from this memory (bytes/s)
system.acctest.edge_tracking0_spm.bw_total::.acctest.edge_tracking0.system.acctest.edge_tracking0     14321668                       # Total bandwidth to/from this memory (bytes/s)
system.acctest.edge_tracking0_spm.bw_total::.acctest.edge_tracking0_dma      4243212                       # Total bandwidth to/from this memory (bytes/s)
system.acctest.edge_tracking0_spm.bw_total::total     18564880                       # Total bandwidth to/from this memory (bytes/s)
system.acctest.canny_non_max0_spm.pwrStateResidencyTicks::UNDEFINED  23206770000                       # Cumulative time (in ticks) in various power states
system.acctest.canny_non_max0_spm.bytes_read::.acctest.canny_non_max0.system.acctest.canny_non_max0       254016                       # Number of bytes read from this memory
system.acctest.canny_non_max0_spm.bytes_read::.acctest.edge_tracking0_dma        65536                       # Number of bytes read from this memory
system.acctest.canny_non_max0_spm.bytes_read::total       319552                       # Number of bytes read from this memory
system.acctest.canny_non_max0_spm.bytes_written::.acctest.canny_non_max0.system.acctest.canny_non_max0        65536                       # Number of bytes written to this memory
system.acctest.canny_non_max0_spm.bytes_written::.acctest.canny_non_max0_dma       131072                       # Number of bytes written to this memory
system.acctest.canny_non_max0_spm.bytes_written::total       196608                       # Number of bytes written to this memory
system.acctest.canny_non_max0_spm.num_reads::.acctest.canny_non_max0.system.acctest.canny_non_max0        63504                       # Number of read requests responded to by this memory
system.acctest.canny_non_max0_spm.num_reads::.acctest.edge_tracking0_dma         2048                       # Number of read requests responded to by this memory
system.acctest.canny_non_max0_spm.num_reads::total        65552                       # Number of read requests responded to by this memory
system.acctest.canny_non_max0_spm.num_writes::.acctest.canny_non_max0.system.acctest.canny_non_max0        16384                       # Number of write requests responded to by this memory
[...]
system.cpu.icache.tags.warmup_cycle                 0                       # Cycle when the warmup percentage was hit.
system.cpu.icache.tags.occ_blocks::.cpu.inst   441.725940                       # Average occupied blocks per requestor
system.cpu.icache.tags.occ_percent::.cpu.inst     0.862746                       # Average percentage of cache occupancy
system.cpu.icache.tags.occ_percent::total     0.862746                       # Average percentage of cache occupancy
system.cpu.icache.tags.occ_task_id_blocks::1024          446                       # Occupied blocks per task id
system.cpu.icache.tags.age_task_id_blocks_1024::0            7                       # Occupied blocks per task id
system.cpu.icache.tags.age_task_id_blocks_1024::1           15                       # Occupied blocks per task id
system.cpu.icache.tags.age_task_id_blocks_1024::3            3                       # Occupied blocks per task id
system.cpu.icache.tags.age_task_id_blocks_1024::4          421                       # Occupied blocks per task id
system.cpu.icache.tags.occ_task_id_percent::1024     0.871094                       # Percentage of cache occupancy per task id
system.cpu.icache.tags.tag_accesses           1617776                       # Number of tag accesses
system.cpu.icache.tags.data_accesses          1617776                       # Number of data accesses
system.cpu.dtb.walker.pwrStateResidencyTicks::UNDEFINED  23207071250                       # Cumulative time (in ticks) in various power states
system.cpu.dtb.stage2_mmu.stage2_tlb.walker.pwrStateResidencyTicks::UNDEFINED  23207071250                       # Cumulative time (in ticks) in various power states
system.cpu.dcache.pwrStateResidencyTicks::UNDEFINED  23207071250                       # Cumulative time (in ticks) in various power states
system.cpu.dcache.demand_hits::.cpu.data       147004                       # number of demand (read+write) hits
system.cpu.dcache.demand_hits::total           147004                       # number of demand (read+write) hits
system.cpu.dcache.overall_hits::.cpu.data       147004                       # number of overall hits
system.cpu.dcache.overall_hits::total          147004                       # number of overall hits
system.cpu.dcache.demand_misses::.cpu.data          532                       # number of demand (read+write) misses
system.cpu.dcache.demand_misses::total            532                       # number of demand (read+write) misses
system.cpu.dcache.overall_misses::.cpu.data          532                       # number of overall misses
system.cpu.dcache.overall_misses::total           532                       # number of overall misses
system.cpu.dcache.demand_miss_latency::.cpu.data     42716625                       # number of demand (read+write) miss cycles
system.cpu.dcache.demand_miss_latency::total     42716625                       # number of demand (read+write) miss cycles
system.cpu.dcache.overall_miss_latency::.cpu.data     42716625                       # number of overall miss cycles
system.cpu.dcache.overall_miss_latency::total     42716625                       # number of overall miss cycles
system.cpu.dcache.demand_accesses::.cpu.data       147536                       # number of demand (read+write) accesses
system.cpu.dcache.demand_accesses::total       147536                       # number of demand (read+write) accesses
system.cpu.dcache.overall_accesses::.cpu.data       147536                       # number of overall (read+write) accesses
system.cpu.dcache.overall_accesses::total       147536                       # number of overall (read+write) accesses
system.cpu.dcache.demand_miss_rate::.cpu.data     0.003606                       # miss rate for demand accesses
system.cpu.dcache.demand_miss_rate::total     0.003606                       # miss rate for demand accesses
system.cpu.dcache.overall_miss_rate::.cpu.data     0.003606                       # miss rate for overall accesses
system.cpu.dcache.overall_miss_rate::total     0.003606                       # miss rate for overall accesses
system.cpu.dcache.demand_avg_miss_latency::.cpu.data 80294.407895                       # average overall miss latency
system.cpu.dcache.demand_avg_miss_latency::total 80294.407895                       # average overall miss latency
system.cpu.dcache.overall_avg_miss_latency::.cpu.data 80294.407895                       # average overall miss latency
system.cpu.dcache.overall_avg_miss_latency::total 80294.407895                       # average overall miss latency
system.cpu.dcache.blocked_cycles::no_mshrs            0                       # number of cycles access was blocked
system.cpu.dcache.blocked_cycles::no_targets            0                       # number of cycles access was blocked
system.cpu.dcache.blocked::no_mshrs                 0                       # number of cycles access was blocked
system.cpu.dcache.blocked::no_targets               0                       # number of cycles access was blocked
system.cpu.dcache.avg_blocked_cycles::no_mshrs          nan                       # average number of cycles each access was blocked
system.cpu.dcache.avg_blocked_cycles::no_targets          nan                       # average number of cycles each access was blocked
system.cpu.dcache.writebacks::.writebacks          219                       # number of writebacks
system.cpu.dcache.writebacks::total               219                       # number of writebacks
system.cpu.dcache.demand_mshr_hits::.cpu.data          134                       # number of demand (read+write) MSHR hits
system.cpu.dcache.demand_mshr_hits::total          134                       # number of demand (read+write) MSHR hits
system.cpu.dcache.overall_mshr_hits::.cpu.data          134                       # number of overall MSHR hits
system.cpu.dcache.overall_mshr_hits::total          134                       # number of overall MSHR hits
system.cpu.dcache.demand_mshr_misses::.cpu.data          398                       # number of demand (read+write) MSHR misses
system.cpu.dcache.demand_mshr_misses::total          398                       # number of demand (read+write) MSHR misses
system.cpu.dcache.overall_mshr_misses::.cpu.data          398                       # number of overall MSHR misses
system.cpu.dcache.overall_mshr_misses::total          398                       # number of overall MSHR misses
system.cpu.dcache.overall_mshr_uncacheable_misses::.cpu.data         3858                       # number of overall MSHR uncacheable misses
system.cpu.dcache.overall_mshr_uncacheable_misses::total         3858                       # number of overall MSHR uncacheable misses
system.cpu.dcache.demand_mshr_miss_latency::.cpu.data     30510125                       # number of demand (read+write) MSHR miss cycles
system.cpu.dcache.demand_mshr_miss_latency::total     30510125                       # number of demand (read+write) MSHR miss cycles
system.cpu.dcache.overall_mshr_miss_latency::.cpu.data     30510125                       # number of overall MSHR miss cycles
system.cpu.dcache.overall_mshr_miss_latency::total     30510125                       # number of overall MSHR miss cycles
system.cpu.dcache.overall_mshr_uncacheable_latency::.cpu.data      8261500                       # number of overall MSHR uncacheable cycles
system.cpu.dcache.overall_mshr_uncacheable_latency::total      8261500                       # number of overall MSHR uncacheable cycles
system.cpu.dcache.demand_mshr_miss_rate::.cpu.data     0.002698                       # mshr miss rate for demand accesses
system.cpu.dcache.demand_mshr_miss_rate::total     0.002698                       # mshr miss rate for demand accesses
system.cpu.dcache.overall_mshr_miss_rate::.cpu.data     0.002698                       # mshr miss rate for overall accesses
system.cpu.dcache.overall_mshr_miss_rate::total     0.002698                       # mshr miss rate for overall accesses
system.cpu.dcache.demand_avg_mshr_miss_latency::.cpu.data 76658.605528                       # average overall mshr miss latency
system.cpu.dcache.demand_avg_mshr_miss_latency::total 76658.605528                       # average overall mshr miss latency
system.cpu.dcache.overall_avg_mshr_miss_latency::.cpu.data 76658.605528                       # average overall mshr miss latency
system.cpu.dcache.overall_avg_mshr_miss_latency::total 76658.605528                       # average overall mshr miss latency
system.cpu.dcache.overall_avg_mshr_uncacheable_latency::.cpu.data  2141.394505                       # average overall mshr uncacheable latency
system.cpu.dcache.overall_avg_mshr_uncacheable_latency::total  2141.394505                       # average overall mshr uncacheable latency
system.cpu.dcache.replacements                    393                       # number of replacements
system.cpu.dcache.ReadReq_hits::.cpu.data        90816                       # number of ReadReq hits
system.cpu.dcache.ReadReq_hits::total           90816                       # number of ReadReq hits
system.cpu.dcache.ReadReq_misses::.cpu.data          258                       # number of ReadReq misses
system.cpu.dcache.ReadReq_misses::total           258                       # number of ReadReq misses
system.cpu.dcache.ReadReq_miss_latency::.cpu.data     18581125                       # number of ReadReq miss cycles
system.cpu.dcache.ReadReq_miss_latency::total     18581125                       # number of ReadReq miss cycles
system.cpu.dcache.ReadReq_accesses::.cpu.data        91074                       # number of ReadReq accesses(hits+misses)
system.cpu.dcache.ReadReq_accesses::total        91074                       # number of ReadReq accesses(hits+misses)
system.cpu.dcache.ReadReq_miss_rate::.cpu.data     0.002833                       # miss rate for ReadReq accesses
system.cpu.dcache.ReadReq_miss_rate::total     0.002833                       # miss rate for ReadReq accesses
system.cpu.dcache.ReadReq_avg_miss_latency::.cpu.data 72019.864341                       # average ReadReq miss latency
system.cpu.dcache.ReadReq_avg_miss_latency::total 72019.864341                       # average ReadReq miss latency
system.cpu.dcache.ReadReq_mshr_hits::.cpu.data           12                       # number of ReadReq MSHR hits
system.cpu.dcache.ReadReq_mshr_hits::total           12                       # number of ReadReq MSHR hits
system.cpu.dcache.ReadReq_mshr_misses::.cpu.data          246                       # number of ReadReq MSHR misses
system.cpu.dcache.ReadReq_mshr_misses::total          246                       # number of ReadReq MSHR misses
system.cpu.dcache.ReadReq_mshr_uncacheable::.cpu.data          380                       # number of ReadReq MSHR uncacheable
system.cpu.dcache.ReadReq_mshr_uncacheable::total          380                       # number of ReadReq MSHR uncacheable
system.cpu.dcache.ReadReq_mshr_miss_latency::.cpu.data     17422500                       # number of ReadReq MSHR miss cycles
system.cpu.dcache.ReadReq_mshr_miss_latency::total     17422500                       # number of ReadReq MSHR miss cycles
system.cpu.dcache.ReadReq_mshr_uncacheable_latency::.cpu.data      8261500                       # number of ReadReq MSHR uncacheable cycles
system.cpu.dcache.ReadReq_mshr_uncacheable_latency::total      8261500                       # number of ReadReq MSHR uncacheable cycles
system.cpu.dcache.ReadReq_mshr_miss_rate::.cpu.data     0.002701                       # mshr miss rate for ReadReq accesses
system.cpu.dcache.ReadReq_mshr_miss_rate::total     0.002701                       # mshr miss rate for ReadReq accesses
system.cpu.dcache.ReadReq_avg_mshr_miss_latency::.cpu.data 70823.170732                       # average ReadReq mshr miss latency
system.cpu.dcache.ReadReq_avg_mshr_miss_latency::total 70823.170732                       # average ReadReq mshr miss latency
system.cpu.dcache.ReadReq_avg_mshr_uncacheable_latency::.cpu.data 21740.789474                       # average ReadReq mshr uncacheable latency
system.cpu.dcache.ReadReq_avg_mshr_uncacheable_latency::total 21740.789474                       # average ReadReq mshr uncacheable latency
system.cpu.dcache.WriteReq_hits::.cpu.data        56188                       # number of WriteReq hits
system.cpu.dcache.WriteReq_hits::total          56188                       # number of WriteReq hits
system.cpu.dcache.WriteReq_misses::.cpu.data          274                       # number of WriteReq misses
system.cpu.dcache.WriteReq_misses::total          274                       # number of WriteReq misses
system.cpu.dcache.WriteReq_miss_latency::.cpu.data     24135500                       # number of WriteReq miss cycles
system.cpu.dcache.WriteReq_miss_latency::total     24135500                       # number of WriteReq miss cycles
system.cpu.dcache.WriteReq_accesses::.cpu.data        56462                       # number of WriteReq accesses(hits+misses)
system.cpu.dcache.WriteReq_accesses::total        56462                       # number of WriteReq accesses(hits+misses)
system.cpu.dcache.WriteReq_miss_rate::.cpu.data     0.004853                       # miss rate for WriteReq accesses
system.cpu.dcache.WriteReq_miss_rate::total     0.004853                       # miss rate for WriteReq accesses
system.cpu.dcache.WriteReq_avg_miss_latency::.cpu.data 88085.766423                       # average WriteReq miss latency
system.cpu.dcache.WriteReq_avg_miss_latency::total 88085.766423                       # average WriteReq miss latency
system.cpu.dcache.WriteReq_mshr_hits::.cpu.data          122                       # number of WriteReq MSHR hits
system.cpu.dcache.WriteReq_mshr_hits::total          122                       # number of WriteReq MSHR hits
system.cpu.dcache.WriteReq_mshr_misses::.cpu.data          152                       # number of WriteReq MSHR misses
system.cpu.dcache.WriteReq_mshr_misses::total          152                       # number of WriteReq MSHR misses
system.cpu.dcache.WriteReq_mshr_uncacheable::.cpu.data         3478                       # number of WriteReq MSHR uncacheable
system.cpu.dcache.WriteReq_mshr_uncacheable::total         3478                       # number of WriteReq MSHR uncacheable
system.cpu.dcache.WriteReq_mshr_miss_latency::.cpu.data     13087625                       # number of WriteReq MSHR miss cycles
system.cpu.dcache.WriteReq_mshr_miss_latency::total     13087625                       # number of WriteReq MSHR miss cycles
system.cpu.dcache.WriteReq_mshr_miss_rate::.cpu.data     0.002692                       # mshr miss rate for WriteReq accesses
system.cpu.dcache.WriteReq_mshr_miss_rate::total     0.002692                       # mshr miss rate for WriteReq accesses
system.cpu.dcache.WriteReq_avg_mshr_miss_latency::.cpu.data 86102.796053                       # average WriteReq mshr miss latency
system.cpu.dcache.WriteReq_avg_mshr_miss_latency::total 86102.796053                       # average WriteReq mshr miss latency
system.cpu.dcache.CleanInvalidReq_mshr_misses::.cpu.data       193834                       # number of CleanInvalidReq MSHR misses
system.cpu.dcache.CleanInvalidReq_mshr_misses::total       193834                       # number of CleanInvalidReq MSHR misses
system.cpu.dcache.CleanInvalidReq_mshr_miss_latency::.cpu.data   2016803125                       # number of CleanInvalidReq MSHR miss cycles
system.cpu.dcache.CleanInvalidReq_mshr_miss_latency::total   2016803125                       # number of CleanInvalidReq MSHR miss cycles
system.cpu.dcache.CleanInvalidReq_mshr_miss_rate::.cpu.data          inf                       # mshr miss rate for CleanInvalidReq accesses
system.cpu.dcache.CleanInvalidReq_mshr_miss_rate::total          inf                       # mshr miss rate for CleanInvalidReq accesses
system.cpu.dcache.CleanInvalidReq_avg_mshr_miss_latency::.cpu.data 10404.795469                       # average CleanInvalidReq mshr miss latency
system.cpu.dcache.CleanInvalidReq_avg_mshr_miss_latency::total 10404.795469                       # average CleanInvalidReq mshr miss latency
system.cpu.dcache.InvalidateReq_mshr_hits::.cpu.data        50551                       # number of InvalidateReq MSHR hits
system.cpu.dcache.InvalidateReq_mshr_hits::total        50551                       # number of InvalidateReq MSHR hits
system.cpu.dcache.InvalidateReq_mshr_misses::.cpu.data       143283                       # number of InvalidateReq MSHR misses
system.cpu.dcache.InvalidateReq_mshr_misses::total       143283                       # number of InvalidateReq MSHR misses
system.cpu.dcache.InvalidateReq_mshr_miss_latency::.cpu.data   1959618227                       # number of InvalidateReq MSHR miss cycles
system.cpu.dcache.InvalidateReq_mshr_miss_latency::total   1959618227                       # number of InvalidateReq MSHR miss cycles
system.cpu.dcache.InvalidateReq_mshr_miss_rate::.cpu.data          inf                       # mshr miss rate for InvalidateReq accesses
system.cpu.dcache.InvalidateReq_mshr_miss_rate::total          inf                       # mshr miss rate for InvalidateReq accesses
system.cpu.dcache.InvalidateReq_avg_mshr_miss_latency::.cpu.data 13676.557770                       # average InvalidateReq mshr miss latency
system.cpu.dcache.InvalidateReq_avg_mshr_miss_latency::total 13676.557770                       # average InvalidateReq mshr miss latency
system.cpu.dcache.tags.pwrStateResidencyTicks::UNDEFINED  23207071250                       # Cumulative time (in ticks) in various power states
system.cpu.dcache.tags.tagsinuse           497.751526                       # Cycle average of tags in use
system.cpu.dcache.tags.total_refs              151349                       # Total number of references to valid blocks.
system.cpu.dcache.tags.sampled_refs               910                       # Sample count of references to valid blocks.
system.cpu.dcache.tags.avg_refs            166.317582                       # Average number of references to valid blocks.
system.cpu.dcache.tags.warmup_cycle                 0                       # Cycle when the warmup percentage was hit.
system.cpu.dcache.tags.occ_blocks::.cpu.data   497.751526                       # Average occupied blocks per requestor
system.cpu.dcache.tags.occ_percent::.cpu.data     0.972171                       # Average percentage of cache occupancy
system.cpu.dcache.tags.occ_percent::total     0.972171                       # Average percentage of cache occupancy
system.cpu.dcache.tags.occ_task_id_blocks::1024          495                       # Occupied blocks per task id
system.cpu.dcache.tags.age_task_id_blocks_1024::0            3                       # Occupied blocks per task id
system.cpu.dcache.tags.age_task_id_blocks_1024::1            2                       # Occupied blocks per task id
system.cpu.dcache.tags.age_task_id_blocks_1024::3           35                       # Occupied blocks per task id
system.cpu.dcache.tags.age_task_id_blocks_1024::4          455                       # Occupied blocks per task id
system.cpu.dcache.tags.occ_task_id_percent::1024     0.966797                       # Percentage of cache occupancy per task id
system.cpu.dcache.tags.tag_accesses           2141214                       # Number of tag accesses
system.cpu.dcache.tags.data_accesses          2141214                       # Number of data accesses
system.cpu.itb.walker.pwrStateResidencyTicks::UNDEFINED  23207071250                       # Cumulative time (in ticks) in various power states
system.cpu.itb.stage2_mmu.stage2_tlb.walker.pwrStateResidencyTicks::UNDEFINED  23207071250                       # Cumulative time (in ticks) in various power states

---------- End Simulation Statistics   ----------
