gem5 Simulator System.  http://gem5.org
gem5 is copyrighted software; use the --copyright option for details.

gem5 compiled Oct  4 2023 20:26:28
gem5 started Oct  5 2023 14:27:32
gem5 executing on node4x10a.cs.rochester.edu, pid 1431
command line: /u/sgupta45/gem5-SALAM/build/ARM/gem5_bus.opt --debug-flags=HWACC,CommInterface,LLVMInterface,StreamDma,NoncoherentDma,TickTimer,SchedulerStats --outdir=BM_ARM_OUT/comb_3_opt_flush_opt_fwd/canny_0_deblur_0_gru_1_harris_1_lstm_1_LAX configs/SALAM/scheduler.py --mem-size=4GB --mem-type=LPDDR5_6400_1x16_BG_BL32 --kernel=/u/sgupta45/gem5-SALAM/benchmarks/scheduler/sw/bin_comb_3/canny_0_deblur_0_gru_1_harris_1_lstm_1_LAX.elf --vans-config-path=/u/sgupta45/VANS/config --disk-image=/u/sgupta45/gem5-SALAM/baremetal/common/fake.iso --machine-type=VExpress_GEM5_V1 --dtb-file=none --bare-metal --cpu-type=ex5_LITTLE --cpu-clock=1.6GHz --accpath=/u/sgupta45/gem5-SALAM/benchmarks --caches --cacheline_size=64 --l1d_size=32kB --l1d_assoc=4 --l1i_size=32kB --l1i_assoc=2

Global frequency set at 1000000000000 ticks per second
Cycle Counts Loaded!
Cycle Counts Loaded!
Cycle Counts Loaded!
Cycle Counts Loaded!
Cycle Counts Loaded!
Cycle Counts Loaded!
Cycle Counts Loaded!
Cycle Counts Loaded!
Cycle Counts Loaded!
Cycle Counts Loaded!
Cycle Counts Loaded!
**** REAL SIMULATION ****
3983750: global: Timer #8 started at tick 3983750
16668750: global: Timer #8 stopped at tick 16668750. Duration: 12685000
16736875: global: Timer #8 started at tick 16736875
29195625: global: Timer #8 stopped at tick 29195625. Duration: 12458750
29223750: global: Timer #8 started at tick 29223750
41674375: global: Timer #8 stopped at tick 41674375. Duration: 12450625
41692500: global: Timer #8 started at tick 41692500
54146250: global: Timer #8 stopped at tick 54146250. Duration: 12453750
54165000: global: Timer #8 started at tick 54165000
66620625: global: Timer #8 stopped at tick 66620625. Duration: 12455625
66637500: global: Timer #8 started at tick 66637500
79091250: global: Timer #8 stopped at tick 79091250. Duration: 12453750
79672500: global: Timer #8 started at tick 79672500
92123750: global: Timer #8 stopped at tick 92123750. Duration: 12451250
610488125: global: Timer #8 started at tick 610488125
809511250: global: Timer #8 stopped at tick 809511250. Duration: 199023125
1219930000: global: Timer #8 started at tick 1219930000
1418945000: global: Timer #8 stopped at tick 1418945000. Duration: 199015000
1828421875: global: Timer #8 started at tick 1828421875
2027435000: global: Timer #8 stopped at tick 2027435000. Duration: 199013125
2436609375: global: Timer #8 started at tick 2436609375
2635628125: global: Timer #8 stopped at tick 2635628125. Duration: 199018750
3045476875: global: Timer #8 started at tick 3045476875
3244490000: global: Timer #8 stopped at tick 3244490000. Duration: 199013125
3653945000: global: Timer #8 started at tick 3653945000
3852960000: global: Timer #8 stopped at tick 3852960000. Duration: 199015000
4261876875: global: Timer #8 started at tick 4261876875
4460890000: global: Timer #8 stopped at tick 4460890000. Duration: 199013125
4870585000: global: Timer #8 started at tick 4870585000
5069600000: global: Timer #8 stopped at tick 5069600000. Duration: 199015000
5070995625: global: Timer #8 started at tick 5070995625
5074227500: global: Timer #8 stopped at tick 5074227500. Duration: 3231875
5074244375: global: Timer #8 started at tick 5074244375
5083597500: global: Timer #8 stopped at tick 5083597500. Duration: 9353125
5083990625: global: Timer #8 started at tick 5083990625
5096455625: global: Timer #8 stopped at tick 5096455625. Duration: 12465000
5097815000: global: Timer #8 started at tick 5097815000
5097858125: global: Timer #8 stopped at tick 5097858125. Duration: 43125
5097885000: global: Timer #8 started at tick 5097885000
5097914375: global: Timer #8 stopped at tick 5097914375. Duration: 29375
5097931250: global: Timer #8 started at tick 5097931250
5110399375: global: Timer #8 stopped at tick 5110399375. Duration: 12468125
5110418125: global: Timer #8 started at tick 5110418125
5122881250: global: Timer #8 stopped at tick 5122881250. Duration: 12463125
5125608125: global: Timer #8 started at tick 5125608125
5138071250: global: Timer #8 stopped at tick 5138071250. Duration: 12463125
5138089375: global: Timer #8 started at tick 5138089375
5150546250: global: Timer #8 stopped at tick 5150546250. Duration: 12456875
5150563125: global: Timer #8 started at tick 5150563125
5163021250: global: Timer #8 stopped at tick 5163021250. Duration: 12458125
5163038750: global: Timer #8 started at tick 5163038750
5175491875: global: Timer #8 stopped at tick 5175491875. Duration: 12453125
5175508750: global: Timer #8 started at tick 5175508750
5187962500: global: Timer #8 stopped at tick 5187962500. Duration: 12453750
5187980000: global: Timer #8 started at tick 5187980000
5200435625: global: Timer #8 stopped at tick 5200435625. Duration: 12455625
5200452500: global: Timer #8 started at tick 5200452500
5200506875: global: Timer #8 stopped at tick 5200506875. Duration: 54375
5203181875: global: Timer #8 started at tick 5203181875
5215639375: global: Timer #8 stopped at tick 5215639375. Duration: 12457500
5215685625: global: Timer #8 started at tick 5215685625
5228137500: global: Timer #8 stopped at tick 5228137500. Duration: 12451875
5228196875: global: Timer #8 started at tick 5228196875
5240652500: global: Timer #8 stopped at tick 5240652500. Duration: 12455625
5240670625: global: Timer #8 started at tick 5240670625
5253122500: global: Timer #8 stopped at tick 5253122500. Duration: 12451875
5253139375: global: Timer #8 started at tick 5253139375
5253174375: global: Timer #8 stopped at tick 5253174375. Duration: 35000
5253193125: global: Timer #8 started at tick 5253193125
5265651250: global: Timer #8 stopped at tick 5265651250. Duration: 12458125
5265668750: global: Timer #8 started at tick 5265668750
5278122500: global: Timer #8 stopped at tick 5278122500. Duration: 12453750
5278139375: global: Timer #8 started at tick 5278139375
5290596250: global: Timer #8 stopped at tick 5290596250. Duration: 12456875
5290943750: global: Timer #8 started at tick 5290943750
5294074375: global: Timer #8 stopped at tick 5294074375. Duration: 3130625
5295087500: global: Timer #8 started at tick 5295087500
5307545625: global: Timer #8 stopped at tick 5307545625. Duration: 12458125
5307605000: global: Timer #8 started at tick 5307605000
5320060625: global: Timer #8 stopped at tick 5320060625. Duration: 12455625
5320077500: global: Timer #8 started at tick 5320077500
5332531250: global: Timer #8 stopped at tick 5332531250. Duration: 12453750
5332549375: global: Timer #8 started at tick 5332549375
5345006250: global: Timer #8 stopped at tick 5345006250. Duration: 12456875
5345025000: global: Timer #8 started at tick 5345025000
5357480625: global: Timer #8 stopped at tick 5357480625. Duration: 12455625
5357497500: global: Timer #8 started at tick 5357497500
5369951250: global: Timer #8 stopped at tick 5369951250. Duration: 12453750
5369968750: global: Timer #8 started at tick 5369968750
5382422500: global: Timer #8 stopped at tick 5382422500. Duration: 12453750
5382439375: global: Timer #8 started at tick 5382439375
5394896250: global: Timer #8 stopped at tick 5394896250. Duration: 12456875
5395525000: global: Timer #8 started at tick 5395525000
5407980625: global: Timer #8 stopped at tick 5407980625. Duration: 12455625
5407997500: global: Timer #8 started at tick 5407997500
5420451250: global: Timer #8 stopped at tick 5420451250. Duration: 12453750
6017885625: global: Timer #8 started at tick 6017885625
6254215000: global: Timer #8 stopped at tick 6254215000. Duration: 236329375
6701711250: global: Timer #8 started at tick 6701711250
6938041250: global: Timer #8 stopped at tick 6938041250. Duration: 236330000
7385216250: global: Timer #8 started at tick 7385216250
7621536250: global: Timer #8 stopped at tick 7621536250. Duration: 236320000
8069065000: global: Timer #8 started at tick 8069065000
8305381250: global: Timer #8 stopped at tick 8305381250. Duration: 236316250
8752526250: global: Timer #8 started at tick 8752526250
8988846250: global: Timer #8 stopped at tick 8988846250. Duration: 236320000
9436203125: global: Timer #8 started at tick 9436203125
9672523125: global: Timer #8 stopped at tick 9672523125. Duration: 236320000
10119921250: global: Timer #8 started at tick 10119921250
10356241250: global: Timer #8 stopped at tick 10356241250. Duration: 236320000
10803559375: global: Timer #8 started at tick 10803559375
11039883125: global: Timer #8 stopped at tick 11039883125. Duration: 236323750
11043475625: global: Timer #2 started at tick 11043475625
11044451875: global: Timer #2 stopped at tick 11044451875. Duration: 976250
11063463750: global: Timer #2 started at tick 11063463750
11064099375: global: Timer #2 stopped at tick 11064099375. Duration: 635625
11067384375: global: Timer #2 started at tick 11067384375
11067915625: global: Timer #2 stopped at tick 11067915625. Duration: 531250
11091368750: global: Timer #6 started at tick 11091368750
11092018750: global: Timer #7 started at tick 11092018750
11092778750: system.acctest.elem_matrix0_dma: SRC:0x00000000821f2c00, DST:0x0000000024000020, LEN:65536
11093058125: global: Timer #7 stopped at tick 11093058125. Duration: 1039375
11093173750: global: Timer #6 stopped at tick 11093173750. Duration: 1805000
11093506250: global: Timer #6 started at tick 11093506250
11094160625: global: Timer #7 started at tick 11094160625
11094890875: system.acctest.isp0_dma: SRC:0x000000008290e180, DST:0x0000000027000020, LEN:16900
11095198750: global: Timer #7 stopped at tick 11095198750. Duration: 1038125
11095271250: global: Timer #6 stopped at tick 11095271250. Duration: 1765000
11095337500: global: Number of accelerators running = 2
11098313875: system.acctest.isp0_dma: Transfer completed in 3.423 us
11099066875: global: Timer #0 started at tick 11099066875
11100588750: global: Timer #1 started at tick 11100588750
11101337500: global: Timer #1 stopped at tick 11101337500. Duration: 748750
11101993125: global: Timer #6 started at tick 11101993125
11102290625: global: Timer #7 started at tick 11102290625
11102817500: global: Timer #7 stopped at tick 11102817500. Duration: 526875
11103109375: global: Timer #6 stopped at tick 11103109375. Duration: 1116250
11103481875: global: Timer #0 stopped at tick 11103481875. Duration: 4415000
11103500625: global: Number of accelerators running = 2
11105202750: system.acctest.elem_matrix0_dma: Transfer completed in 12.424 us
11105340000: global: Timer #0 started at tick 11105340000
11105740000: global: Timer #1 started at tick 11105740000
11105853750: global: Timer #1 stopped at tick 11105853750. Duration: 113750
11106168750: global: Timer #6 started at tick 11106168750
11106706875: global: Timer #7 started at tick 11106706875
11107352375: system.acctest.elem_matrix0_dma: SRC:0x00000000820f2a40, DST:0x0000000024010020, LEN:65536
11107483125: global: Timer #7 stopped at tick 11107483125. Duration: 776250
11107558750: global: Timer #6 stopped at tick 11107558750. Duration: 1390000
11107689375: global: Timer #0 stopped at tick 11107689375. Duration: 2349375
11107703750: global: Number of accelerators running = 2
11119353375: system.acctest.elem_matrix0_dma: Transfer completed in 12.001 us
11119429375: global: Timer #0 started at tick 11119429375
11119763750: global: Timer #1 started at tick 11119763750
11119817500: global: Timer #1 stopped at tick 11119817500. Duration: 53750
11120131875: global: Timer #6 started at tick 11120131875
11120217500: global: Timer #7 started at tick 11120217500
11121245000: global: Timer #7 stopped at tick 11121245000. Duration: 1027500
11121336875: global: Timer #6 stopped at tick 11121336875. Duration: 1205000
11121466875: global: Timer #0 stopped at tick 11121466875. Duration: 2037500
11121481250: global: Number of accelerators running = 2
********************************************************************************
system.acctest.elem_matrix0.compute
   ========= Performance Analysis =============
   Setup Time:                      4.99408seconds
   Simulation Time:                 460.128seconds
   System Clock:                    1GHz
   Transistor Latency:              1ns
   Runtime:                         10932 cycles
   Runtime:                         10.932 us
   Stalls:                          0 cycles
   Executed Nodes:                  10931 cycles

********************************************************************************
   ========= Performance Analysis =================
   Setup Time:                      4.99408e+09ns
   Simulation Time:                 4.60128e+11ns
   System Clock:                    1GHz
   Transistor Latency:              0ns
   Runtime:                         10932 cycles
   Runtime:                         1.0932e-06 seconds
   Stalls:                          0 cycles
       Load Only:                   0 cycles
       Store Only:                  0 cycles
       Compute Only:                0 cycles
       Compute & Store:             0 cycles
       Load & Store:                0 cycles
       Load & Compute:              0 cycles
       Load & Compute & Store:      0 cycles
   Executed Nodes:                  10931 cycles
       Load Only:                   0 cycles
       Store Only:                  5 cycles
       Compute Only:                1 cycles
       Compute & Store:             21 cycles
       Load & Store:                0 cycles
       Load & Compute:              7 cycles
       Load & Compute & Store:      10897 cycles

   ========= Runtime FU's ========= (Max | Avg) ===
   Counter FU's:                      32 | 0.046838
   Integer Add/Sub FU's:               0 | 0.000000
   Integer Mul/Div FU's:               0 | 0.000000
   Integer Shifter FU's:               0 | 0.000000
   Integer Bitwise FU's:               1 | 0.000091
   Floating Point Float Add/Sub:      34 | 0.044252
   Floating Point Double Add/Sub:      0 | 0.000000
   Floating Point Float Mul/Div:       0 | 0.000000
   Floating Point Double Mul/Div:      0 | 0.000000
   0 Cycle Compare FU's:             102 | 0.046974
   GEP Instruction FU's:              96 | 0.046835
   Type Conversion FU's:               7 | 0.006782

   ========= Static FU's ==========================
   Counter FU's:                    0
   Integer Add/Sub FU's:            0
   Integer Mul/Div FU's:            0
   Integer Shifter FU's:            0
   Integer Bitwise FU's:            0
   Floating Point Float Add/Sub:    0
   Floating Point Double Add/Sub:   0
   Floating Point Float Mul/Div:    0
   Floating Point Double Mul/Div:   0
   0 Cycle Compare FU's:            0
   GEP Instruction FU's:            0
   Type Conversion FU's:            0
   Other:                           0

   ========= Pipeline Register Usage =============
   Total Number of Registers:       5641
   Max Register Usage Per Cycle:    138
   Avg Register Usage Per Cycle:    12.130992
   Avg Register Size (Bytes):       5.980606

   ========= Memory Configuration =================
   Cache Bus Ports:                 0
   Shared Cache Size:               0kB
   Local Bus Ports:                 0
   Private SPM Size:                256kB
   Private Read Ports:              0
   Private Write Ports:             0
   Private Read Bus Width:          64
   Private Write Bus Width:         64
       Memory Reads:                0
       Memory Writes:               0
   ========= Power Analysis ======================
   FU Leakage Power:                0.519269 mW 
   FU Dynamic Power:                0.154621 mW 
   FU Total Power:                  0.673890 mW 

   Registers Leakage Power:          0.005281 mW 
   Registers Dynamic Power:          0.015326 mW 
       Register Reads (Bits):        132616
       Register Writes (Bits):       133658
   Registers Total Power:            0.020607 mW

   SPM Leakage Power:               0.104100 mW
   SPM Read Dynamic Power:          1.997266 mW
   SPM Write Dynamic Power:         0.953321 mW
   SPM Total Power:                 3.054688 mW

   SPM Energy Per Read Access:      0.170493 nJ
   SPM Energy Per Write Access:     0.218190 nJ

   Cache Leakage Power:             0.000000 mW
   Cache Read Dynamic Power:        0.000000 mW
   Cache Write Dynamic Power:       0.000000 mW
   Cache Total Power:               0.000000 mW

   Accelerator Power:               0.694497 mW
   Accelerator Power (SPM):         3.749184 mW
   Accelerator Power (Cache):       0.694497 mW

   ========= Area Analysis =======================
   FU Area:                         70212.562500 um^2 (0.070213 mm^2)
   Register Area:                   429.271088 um^2 (0.000429 mm^2)
   SPM Area:                        2177.365505 um^2 (0.002177 mm^2)
   Cache Area:                      0.000000 um^2 (0.000000 mm^2)

   Accelerator Area:                70641.835938 um^2 (0.070642 mm^2)
   Accelerator Area (SPM):          72819.201442 um^2 (0.072819 mm^2)
   Accelerator Area (Cache):        70641.835938 um^2 (0.070642 mm^2)

   ========= SPM Resizing  =======================
   SPM Optimized Leakage Power:     0.004248 mW
   SPM Opt Area:                    178.524902 um^2

11132132500: global: Timer #0 started at tick 11132132500
11132476250: global: Timer #2 started at tick 11132476250
11133492500: global: Timer #2 stopped at tick 11133492500. Duration: 1016250
11133665000: global: Timer #2 started at tick 11133665000
11134226875: global: Timer #2 stopped at tick 11134226875. Duration: 561875
11135012500: global: Timer #7 started at tick 11135012500
11135665875: system.acctest.elem_matrix0_dma: SRC:0x0000000024030020, DST:0x0000000082102a40, LEN:65536
11135813750: global: Timer #7 stopped at tick 11135813750. Duration: 801250
11136163125: global: Timer #0 stopped at tick 11136163125. Duration: 4030625
11136177500: global: Number of accelerators running = 2
********************************************************************************
system.acctest.isp0.compute
   ========= Performance Analysis =============
   Setup Time:                      0.351855seconds
   Simulation Time:                 959.964243seconds
   System Clock:                    1.000000GHz
   Transistor Latency:              1ns
   Runtime:                         34882 cycles
   Runtime:                         34.882000 us
   Stalls:                          1 cycles
   Executed Nodes:                  34880 cycles

********************************************************************************
   ========= Performance Analysis =================
   Setup Time:                      351855460.000000ns
   Simulation Time:                 959964242775.000000ns
   System Clock:                    1.000000GHz
   Transistor Latency:              0ns
   Runtime:                         34882 cycles
   Runtime:                         0.000003 seconds
   Stalls:                          1 cycles
       Load Only:                   0 cycles
       Store Only:                  1 cycles
       Compute Only:                0 cycles
       Compute & Store:             0 cycles
       Load & Store:                0 cycles
       Load & Compute:              0 cycles
       Load & Compute & Store:      0 cycles
   Executed Nodes:                  34880 cycles
       Load Only:                   0 cycles
       Store Only:                  1 cycles
       Compute Only:                3453 cycles
       Compute & Store:             19014 cycles
       Load & Store:                0 cycles
       Load & Compute:              2467 cycles
       Load & Compute & Store:      9945 cycles

   ========= Runtime FU's ========= (Max | Avg) ===
   Counter FU's:                      10 | 0.118075
   Integer Add/Sub FU's:              76 | 0.082082
   Integer Mul/Div FU's:              11 | 0.043888
   Integer Shifter FU's:              42 | 0.055974
   Integer Bitwise FU's:               4 | 0.059443
   Floating Point Float Add/Sub:      53 | 0.116839
   Floating Point Double Add/Sub:      0 | 0.000000
   Floating Point Float Mul/Div:      76 | 0.625626
   Floating Point Double Mul/Div:      0 | 0.000000
   0 Cycle Compare FU's:              85 | 0.664984
   GEP Instruction FU's:              33 | 0.117424
   Type Conversion FU's:             110 | 0.379700

   ========= Static FU's ==========================
   Counter FU's:                    0
   Integer Add/Sub FU's:            0
   Integer Mul/Div FU's:            0
   Integer Shifter FU's:            0
   Integer Bitwise FU's:            0
   Floating Point Float Add/Sub:    0
   Floating Point Double Add/Sub:   0
   Floating Point Float Mul/Div:    0
   Floating Point Double Mul/Div:   0
   0 Cycle Compare FU's:            0
   GEP Instruction FU's:            0
   Type Conversion FU's:            0
   Other:                           0

   ========= Pipeline Register Usage =============
   Total Number of Registers:       1620
   Max Register Usage Per Cycle:    151
   Avg Register Usage Per Cycle:    58.744711
   Avg Register Size (Bytes):       5.073357

   ========= Memory Configuration =================
   Cache Bus Ports:                 0
   Shared Cache Size:               0kB
   Local Bus Ports:                 0
   Private SPM Size:                112kB
   Private Read Ports:              0
   Private Write Ports:             0
   Private Read Bus Width:          64
   Private Write Bus Width:         64
       Memory Reads:                0
       Memory Writes:               0
   ========= Power Analysis ======================
   FU Leakage Power:                1.637787 mW 
   FU Dynamic Power:                9.655087 mW 
   FU Total Power:                  11.292874 mW 

   Registers Leakage Power:          0.021654 mW 
   Registers Dynamic Power:          3.085961 mW 
       Register Reads (Bits):        2049133
       Register Writes (Bits):       2049168
   Registers Total Power:            3.107615 mW

   SPM Leakage Power:               0.061081 mW
   SPM Read Dynamic Power:          11.103730 mW
   SPM Write Dynamic Power:         7.385230 mW
   SPM Total Power:                 18.550041 mW

   SPM Energy Per Read Access:      0.142059 nJ
   SPM Energy Per Write Access:     0.255513 nJ

   Cache Leakage Power:             0.000000 mW
   Cache Read Dynamic Power:        0.000000 mW
   Cache Write Dynamic Power:       0.000000 mW
   Cache Total Power:               0.000000 mW

   Accelerator Power:               14.400490 mW
   Accelerator Power (SPM):         32.950531 mW
   Accelerator Power (Cache):       14.400490 mW

   ========= Area Analysis =======================
   FU Area:                         176023.796875 um^2 (0.176024 mm^2)
   Register Area:                   1760.064941 um^2 (0.001760 mm^2)
   SPM Area:                        2165.394891 um^2 (0.002165 mm^2)
   Cache Area:                      0.000000 um^2 (0.000000 mm^2)

   Accelerator Area:                177783.859375 um^2 (0.177784 mm^2)
   Accelerator Area (SPM):          179949.254266 um^2 (0.179949 mm^2)
   Accelerator Area (Cache):        177783.859375 um^2 (0.177784 mm^2)

   ========= SPM Resizing  =======================
   SPM Optimized Leakage Power:     0.005964 mW
   SPM Opt Area:                    422.108128 um^2

11137668125: global: Timer #0 started at tick 11137668125
11137973750: global: Timer #2 started at tick 11137973750
11138415625: global: Timer #2 stopped at tick 11138415625. Duration: 441875
11138702500: global: DAG ID = 1
11138720625: global: Node ID = 0
11138783125: global: Node deadline difference = -13978
11138801250: global: Predicted memory time / byte = 7.27596e-05 us/byte
11138819375: global: Predicted memory time = 1.22964 us
11138837500: global: Predicted memory time / byte = 7.27596e-05 us/byte
11138855625: global: Predicted memory time = 3.57628 us
11138918125: global: Predicted memory time / byte = 0.00025503 us/byte
11138936250: global: Predicted memory time = 4.31 us
11138954375: global: Predicted memory time / byte = 0 us/byte
11138972500: global: Predicted memory time = 0 us
11138990625: global: Predicted memory access size = 0
11139008750: global: Predicted memory access size = 16900
11139070000: global: Predicted memory access size = 0
11139088750: global: Predicted memory access size = 0
11139240625: global: Timer #6 started at tick 11139240625
11139634375: global: Timer #7 started at tick 11139634375
11140298000: system.acctest.grayscale0_dma: SRC:0x0000000027010224, DST:0x0000000025000020, LEN:49152
11140600000: global: Timer #7 stopped at tick 11140600000. Duration: 965625
11140749375: global: Timer #6 stopped at tick 11140749375. Duration: 1508750
11140869375: global: Timer #0 stopped at tick 11140869375. Duration: 3201250
11140883750: global: Number of accelerators running = 2
11144140875: system.acctest.elem_matrix0_dma: Transfer completed in 8.475 us
11144231250: global: Timer #0 started at tick 11144231250
11144843750: global: Timer #1 started at tick 11144843750
11145138750: global: Timer #1 stopped at tick 11145138750. Duration: 295000
11145452500: global: DAG ID = 0
11145470625: global: Node ID = 0
11145537500: global: Node deadline difference = -2266
11145555625: global: Predicted memory time / byte = 7.27596e-05 us/byte
11145573750: global: Predicted memory time = 9.53674 us
11145591875: global: Predicted memory time / byte = 7.27596e-05 us/byte
11145610000: global: Predicted memory time = 4.76837 us
11145628125: global: Predicted memory time / byte = 0.000186363 us/byte
11145646250: global: Predicted memory time = 24.427 us
11145664375: global: Predicted memory time / byte = 0.000130768 us/byte
11145682500: global: Predicted memory time = 8.57 us
11145700625: global: Predicted memory access size = 0
11145718750: global: Predicted memory access size = 131072
11145736875: global: Predicted memory access size = 0
11145755000: global: Predicted memory access size = 65536
11145863125: global: Timer #6 started at tick 11145863125
11146461875: global: Timer #7 started at tick 11146461875
11147128000: system.acctest.elem_matrix0_dma: SRC:0x00000000820b28c0, DST:0x0000000024010020, LEN:65536
11147260000: global: Timer #7 stopped at tick 11147260000. Duration: 798125
11147330625: global: Timer #6 stopped at tick 11147330625. Duration: 1467500
11147430000: global: Timer #0 stopped at tick 11147430000. Duration: 3198750
11147444375: global: Number of accelerators running = 2
11150760000: system.acctest.grayscale0_dma: Transfer completed in 10.462 us
11150853750: global: Timer #0 started at tick 11150853750
11151179375: global: Timer #1 started at tick 11151179375
11151320625: global: Timer #1 stopped at tick 11151320625. Duration: 141250
11151631250: global: Timer #6 started at tick 11151631250
11151764375: global: Timer #7 started at tick 11151764375
11152206250: global: Timer #7 stopped at tick 11152206250. Duration: 441875
11152378750: global: Timer #6 stopped at tick 11152378750. Duration: 747500
11152492500: global: Timer #0 stopped at tick 11152492500. Duration: 1638750
11152506875: global: Number of accelerators running = 2
11159065000: system.acctest.elem_matrix0_dma: Transfer completed in 11.937 us
11159158125: global: Timer #0 started at tick 11159158125
11159485625: global: Timer #1 started at tick 11159485625
11159552500: global: Timer #1 stopped at tick 11159552500. Duration: 66875
11159798125: global: Timer #6 started at tick 11159798125
11159903750: global: Timer #7 started at tick 11159903750
11160926250: global: Timer #7 stopped at tick 11160926250. Duration: 1022500
11161250625: global: Timer #6 stopped at tick 11161250625. Duration: 1452500
11161360000: global: Timer #0 stopped at tick 11161360000. Duration: 2201875
11161374375: global: Number of accelerators running = 2
********************************************************************************
system.acctest.grayscale0.compute
   ========= Performance Analysis =============
   Setup Time:                      0.009709seconds
   Simulation Time:                 257.590490seconds
   System Clock:                    1.000000GHz
   Transistor Latency:              1ns
   Runtime:                         10263 cycles
   Runtime:                         10.263000 us
   Stalls:                          1 cycles
   Executed Nodes:                  10261 cycles

********************************************************************************
   ========= Performance Analysis =================
   Setup Time:                      9709084.000000ns
   Simulation Time:                 257590489696.000031ns
   System Clock:                    1.000000GHz
   Transistor Latency:              0ns
   Runtime:                         10263 cycles
   Runtime:                         0.000001 seconds
   Stalls:                          1 cycles
       Load Only:                   0 cycles
       Store Only:                  1 cycles
       Compute Only:                0 cycles
       Compute & Store:             0 cycles
       Load & Store:                0 cycles
       Load & Compute:              0 cycles
       Load & Compute & Store:      0 cycles
   Executed Nodes:                  10261 cycles
       Load Only:                   0 cycles
       Store Only:                  1 cycles
       Compute Only:                88 cycles
       Compute & Store:             344 cycles
       Load & Store:                0 cycles
       Load & Compute:              1981 cycles
       Load & Compute & Store:      7847 cycles

   ========= Runtime FU's ========= (Max | Avg) ===
   Counter FU's:                      24 | 0.199556
   Integer Add/Sub FU's:               0 | 0.000000
   Integer Mul/Div FU's:               8 | 0.199552
   Integer Shifter FU's:               0 | 0.000000
   Integer Bitwise FU's:               1 | 0.000097
   Floating Point Float Add/Sub:      49 | 0.114264
   Floating Point Double Add/Sub:      0 | 0.000000
   Floating Point Float Mul/Div:      42 | 0.114129
   Floating Point Double Mul/Div:      0 | 0.000000
   0 Cycle Compare FU's:               9 | 0.066626
   GEP Instruction FU's:              36 | 0.177452
   Type Conversion FU's:              76 | 0.401969

   ========= Static FU's ==========================
   Counter FU's:                    0
   Integer Add/Sub FU's:            0
   Integer Mul/Div FU's:            0
   Integer Shifter FU's:            0
   Integer Bitwise FU's:            0
   Floating Point Float Add/Sub:    0
   Floating Point Double Add/Sub:   0
   Floating Point Float Mul/Div:    0
   Floating Point Double Mul/Div:   0
   0 Cycle Compare FU's:            0
   GEP Instruction FU's:            0
   Type Conversion FU's:            0
   Other:                           0

   ========= Pipeline Register Usage =============
   Total Number of Registers:       235
   Max Register Usage Per Cycle:    90
   Avg Register Usage Per Cycle:    33.924291
   Avg Register Size (Bytes):       5.841147

   ========= Memory Configuration =================
   Cache Bus Ports:                 0
   Shared Cache Size:               0kB
   Local Bus Ports:                 0
   Private SPM Size:                176kB
   Private Read Ports:              0
   Private Write Ports:             0
   Private Read Bus Width:          64
   Private Write Bus Width:         64
       Memory Reads:                0
       Memory Writes:               0
   ========= Power Analysis ======================
   FU Leakage Power:                1.178269 mW 
   FU Dynamic Power:                0.617392 mW 
   FU Total Power:                  1.795662 mW 

   Registers Leakage Power:          0.014185 mW 
   Registers Dynamic Power:          0.101057 mW 
       Register Reads (Bits):        348165
       Register Writes (Bits):       348168
   Registers Total Power:            0.115242 mW

   SPM Leakage Power:               0.089881 mW
   SPM Read Dynamic Power:          6.997296 mW
   SPM Write Dynamic Power:         2.062375 mW
   SPM Total Power:                 9.149552 mW

   SPM Energy Per Read Access:      0.161778 nJ
   SPM Energy Per Write Access:     0.205661 nJ

   Cache Leakage Power:             0.000000 mW
   Cache Read Dynamic Power:        0.000000 mW
   Cache Write Dynamic Power:       0.000000 mW
   Cache Total Power:               0.000000 mW

   Accelerator Power:               1.910904 mW
   Accelerator Power (SPM):         11.060456 mW
   Accelerator Power (Cache):       1.910904 mW

   ========= Area Analysis =======================
   FU Area:                         143348.187500 um^2 (0.143348 mm^2)
   Register Area:                   1152.968140 um^2 (0.001153 mm^2)
   SPM Area:                        3573.642862 um^2 (0.003574 mm^2)
   Cache Area:                      0.000000 um^2 (0.000000 mm^2)

   Accelerator Area:                144501.156250 um^2 (0.144501 mm^2)
   Accelerator Area (SPM):          148074.799112 um^2 (0.148075 mm^2)
   Accelerator Area (Cache):        144501.156250 um^2 (0.144501 mm^2)

   ========= SPM Resizing  =======================
   SPM Optimized Leakage Power:     0.003633 mW
   SPM Opt Area:                    364.024374 um^2

11162378125: global: Timer #0 started at tick 11162378125
11162698750: global: Timer #2 started at tick 11162698750
11163125000: global: Timer #2 stopped at tick 11163125000. Duration: 426250
11163296875: global: Timer #2 started at tick 11163296875
11163678125: global: Timer #2 stopped at tick 11163678125. Duration: 381250
11163846875: global: Timer #7 started at tick 11163846875
11164482375: system.acctest.grayscale0_dma: SRC:0x000000002501c020, DST:0x000000008291e540, LEN:65536
11164635625: global: Timer #7 stopped at tick 11164635625. Duration: 788750
11164840625: global: Timer #6 started at tick 11164840625
11165320625: global: Timer #7 started at tick 11165320625
11166105000: system.acctest.convolution0_dma: SRC:0x000000002501c020, DST:0x0000000022000020, LEN:65536
11166415625: global: Timer #7 stopped at tick 11166415625. Duration: 1095000
11166445000: global: Timer #6 stopped at tick 11166445000. Duration: 1604375
11166574375: global: Timer #0 stopped at tick 11166574375. Duration: 4196250
11166588750: global: Number of accelerators running = 3
********************************************************************************
system.acctest.elem_matrix0.compute
   ========= Performance Analysis =============
   Setup Time:                      7.065077seconds
   Simulation Time:                 234.432505seconds
   System Clock:                    1.000000GHz
   Transistor Latency:              1ns
   Runtime:                         10932 cycles
   Runtime:                         10.932000 us
   Stalls:                          1 cycles
   Executed Nodes:                  10930 cycles

********************************************************************************
   ========= Performance Analysis =================
   Setup Time:                      7065076983.000000ns
   Simulation Time:                 234432505212.000000ns
   System Clock:                    1.000000GHz
   Transistor Latency:              0ns
   Runtime:                         10932 cycles
   Runtime:                         0.000001 seconds
   Stalls:                          1 cycles
       Load Only:                   0 cycles
       Store Only:                  1 cycles
       Compute Only:                0 cycles
       Compute & Store:             0 cycles
       Load & Store:                0 cycles
       Load & Compute:              0 cycles
       Load & Compute & Store:      0 cycles
   Executed Nodes:                  10930 cycles
       Load Only:                   0 cycles
       Store Only:                  4 cycles
       Compute Only:                1 cycles
       Compute & Store:             21 cycles
       Load & Store:                0 cycles
       Load & Compute:              6 cycles
       Load & Compute & Store:      10898 cycles

   ========= Runtime FU's ========= (Max | Avg) ===
   Counter FU's:                      32 | 0.046838
   Integer Add/Sub FU's:               0 | 0.000000
   Integer Mul/Div FU's:               0 | 0.000000
   Integer Shifter FU's:               0 | 0.000000
   Integer Bitwise FU's:               1 | 0.000091
   Floating Point Float Add/Sub:       0 | 0.000000
   Floating Point Double Add/Sub:      0 | 0.000000
   Floating Point Float Mul/Div:      34 | 0.044252
   Floating Point Double Mul/Div:      0 | 0.000000
   0 Cycle Compare FU's:             102 | 0.046945
   GEP Instruction FU's:              96 | 0.046835
   Type Conversion FU's:               7 | 0.006782

   ========= Static FU's ==========================
   Counter FU's:                    0
   Integer Add/Sub FU's:            0
   Integer Mul/Div FU's:            0
   Integer Shifter FU's:            0
   Integer Bitwise FU's:            0
   Floating Point Float Add/Sub:    0
   Floating Point Double Add/Sub:   0
   Floating Point Float Mul/Div:    0
   Floating Point Double Mul/Div:   0
   0 Cycle Compare FU's:            0
   GEP Instruction FU's:            0
   Type Conversion FU's:            0
   Other:                           0

   ========= Pipeline Register Usage =============
   Total Number of Registers:       5641
   Max Register Usage Per Cycle:    137
   Avg Register Usage Per Cycle:    12.130992
   Avg Register Size (Bytes):       5.980606

   ========= Memory Configuration =================
   Cache Bus Ports:                 0
   Shared Cache Size:               0kB
   Local Bus Ports:                 0
   Private SPM Size:                256kB
   Private Read Ports:              0
   Private Write Ports:             0
   Private Read Bus Width:          64
   Private Write Bus Width:         64
       Memory Reads:                0
       Memory Writes:               0
   ========= Power Analysis ======================
   FU Leakage Power:                0.045377 mW 
   FU Dynamic Power:                0.142576 mW 
   FU Total Power:                  0.187953 mW 

   Registers Leakage Power:          0.005281 mW 
   Registers Dynamic Power:          0.015326 mW 
       Register Reads (Bits):        132616
       Register Writes (Bits):       133658
   Registers Total Power:            0.020607 mW

   SPM Leakage Power:               0.104100 mW
   SPM Read Dynamic Power:          2.785289 mW
   SPM Write Dynamic Power:         2.044305 mW
   SPM Total Power:                 4.933694 mW

   SPM Energy Per Read Access:      0.170493 nJ
   SPM Energy Per Write Access:     0.218190 nJ

   Cache Leakage Power:             0.000000 mW
   Cache Read Dynamic Power:        0.000000 mW
   Cache Write Dynamic Power:       0.000000 mW
   Cache Total Power:               0.000000 mW

   Accelerator Power:               0.208559 mW
   Accelerator Power (SPM):         5.142254 mW
   Accelerator Power (Cache):       0.208559 mW

   ========= Area Analysis =======================
   FU Area:                         5472.068359 um^2 (0.005472 mm^2)
   Register Area:                   429.271088 um^2 (0.000429 mm^2)
   SPM Area:                        2177.365505 um^2 (0.002177 mm^2)
   Cache Area:                      0.000000 um^2 (0.000000 mm^2)

   Accelerator Area:                5901.339355 um^2 (0.005901 mm^2)
   Accelerator Area (SPM):          8078.704860 um^2 (0.008079 mm^2)
   Accelerator Area (Cache):        5901.339355 um^2 (0.005901 mm^2)

   ========= SPM Resizing  =======================
   SPM Optimized Leakage Power:     0.004248 mW
   SPM Opt Area:                    178.524902 um^2

11171823125: global: Timer #0 started at tick 11171823125
11172088750: global: Timer #2 started at tick 11172088750
11172434375: global: Timer #2 stopped at tick 11172434375. Duration: 345625
11172671250: global: DAG ID = 0
11172683750: global: Node ID = 5
11172696875: global: Node deadline difference = -2296
11172709375: global: Predicted memory time / byte = 0.000183075 us/byte
11172721875: global: Predicted memory time = 23.996 us
11172734375: global: Predicted memory time / byte = 0.000183075 us/byte
11172746875: global: Predicted memory time = 11.998 us
11172759375: global: Predicted memory time / byte = 0.000182312 us/byte
11172771875: global: Predicted memory time = 11.948 us
11172784375: global: Predicted memory time / byte = 0 us/byte
11172796875: global: Predicted memory time = 0 us
11172809375: global: Predicted memory access size = 0
11172821875: global: Predicted memory access size = 65536
11172834375: global: Predicted memory access size = 0
11172846875: global: Predicted memory access size = 0
11172945625: global: Timer #6 started at tick 11172945625
11173072500: global: Timer #7 started at tick 11173072500
11173760000: system.acctest.elem_matrix0_dma: SRC:0x00000000820c28c0, DST:0x0000000024010020, LEN:65536
11173888750: global: Timer #7 stopped at tick 11173888750. Duration: 816250
11173903750: global: Timer #6 stopped at tick 11173903750. Duration: 958125
11173996875: global: Timer #0 stopped at tick 11173996875. Duration: 2173750
11174011250: global: Number of accelerators running = 3
11175399375: system.acctest.grayscale0_dma: Transfer completed in 10.917 us
11175483125: global: Timer #0 started at tick 11175483125
11175806875: global: Timer #1 started at tick 11175806875
11175882500: global: Timer #1 stopped at tick 11175882500. Duration: 75625
11176103125: global: DAG ID = 1
11176115625: global: Node ID = 1
11176135000: global: Node deadline difference = -13977
11176147500: global: Predicted memory time / byte = 0.000183075 us/byte
11176160000: global: Predicted memory time = 8.9985 us
11176172500: global: Predicted memory time / byte = 0.000183075 us/byte
11176185000: global: Predicted memory time = 11.998 us
11176197500: global: Predicted memory time / byte = 0.000211995 us/byte
11176210000: global: Predicted memory time = 10.42 us
11176222500: global: Predicted memory time / byte = 0.000166367 us/byte
11176235000: global: Predicted memory time = 10.903 us
11176247500: global: Predicted memory access size = 0
11176260000: global: Predicted memory access size = 49152
11176272500: global: Predicted memory access size = 0
11176285000: global: Predicted memory access size = 65536
11176431250: global: Timer #0 stopped at tick 11176431250. Duration: 948125
11176445625: global: Number of accelerators running = 2
11183306000: system.acctest.convolution0_dma: Transfer completed in 17.201 us
11183400000: global: Timer #0 started at tick 11183400000
11183725625: global: Timer #1 started at tick 11183725625
11183784375: global: Timer #1 stopped at tick 11183784375. Duration: 58750
11184026250: global: Timer #6 started at tick 11184026250
11184173125: global: Timer #7 started at tick 11184173125
11184825875: system.acctest.convolution0_dma: SRC:0x000000008292e840, DST:0x0000000022030020, LEN:36
11184918875: system.acctest.convolution0_dma: Transfer completed in 0.093 us
11185015000: global: Timer #7 stopped at tick 11185015000. Duration: 841875
11185048750: global: Timer #6 stopped at tick 11185048750. Duration: 1022500
11185151875: global: Timer #0 stopped at tick 11185151875. Duration: 1751875
11185166250: global: Number of accelerators running = 2
11185280000: global: Timer #0 started at tick 11185280000
11185753750: global: Timer #6 started at tick 11185753750
11185812500: global: Timer #7 started at tick 11185812500
11186543000: system.acctest.elem_matrix0_dma: Transfer completed in 12.783 us
11186888125: global: Timer #7 stopped at tick 11186888125. Duration: 1075625
11186943125: global: Timer #6 stopped at tick 11186943125. Duration: 1189375
11187049375: global: Timer #0 stopped at tick 11187049375. Duration: 1769375
11187063750: global: Number of accelerators running = 2
11187181250: global: Timer #0 started at tick 11187181250
11187504375: global: Timer #1 started at tick 11187504375
11187568125: global: Timer #1 stopped at tick 11187568125. Duration: 63750
11187796250: global: Timer #6 started at tick 11187796250
11187866875: global: Timer #7 started at tick 11187866875
11188883125: global: Timer #7 stopped at tick 11188883125. Duration: 1016250
11188940000: global: Timer #6 stopped at tick 11188940000. Duration: 1143750
11189041250: global: Timer #0 stopped at tick 11189041250. Duration: 1860000
11189055625: global: Number of accelerators running = 2
********************************************************************************
system.acctest.elem_matrix0.compute
   ========= Performance Analysis =============
   Setup Time:                      10.841319seconds
   Simulation Time:                 203.036871seconds
   System Clock:                    1.000000GHz
   Transistor Latency:              1ns
   Runtime:                         10932 cycles
   Runtime:                         10.932000 us
   Stalls:                          0 cycles
   Executed Nodes:                  10931 cycles

********************************************************************************
   ========= Performance Analysis =================
   Setup Time:                      10841318600.000000ns
   Simulation Time:                 203036870644.000000ns
   System Clock:                    1.000000GHz
   Transistor Latency:              0ns
   Runtime:                         10932 cycles
   Runtime:                         0.000001 seconds
   Stalls:                          0 cycles
       Load Only:                   0 cycles
       Store Only:                  0 cycles
       Compute Only:                0 cycles
       Compute & Store:             0 cycles
       Load & Store:                0 cycles
       Load & Compute:              0 cycles
       Load & Compute & Store:      0 cycles
   Executed Nodes:                  10931 cycles
       Load Only:                   0 cycles
       Store Only:                  5 cycles
       Compute Only:                1 cycles
       Compute & Store:             21 cycles
       Load & Store:                0 cycles
       Load & Compute:              7 cycles
       Load & Compute & Store:      10897 cycles

   ========= Runtime FU's ========= (Max | Avg) ===
   Counter FU's:                      32 | 0.046838
   Integer Add/Sub FU's:               0 | 0.000000
   Integer Mul/Div FU's:               0 | 0.000000
   Integer Shifter FU's:               0 | 0.000000
   Integer Bitwise FU's:               1 | 0.000091
   Floating Point Float Add/Sub:      34 | 0.044252
   Floating Point Double Add/Sub:      0 | 0.000000
   Floating Point Float Mul/Div:       0 | 0.000000
   Floating Point Double Mul/Div:      0 | 0.000000
   0 Cycle Compare FU's:             102 | 0.046974
   GEP Instruction FU's:              96 | 0.046835
   Type Conversion FU's:               7 | 0.006782

   ========= Static FU's ==========================
   Counter FU's:                    0
   Integer Add/Sub FU's:            0
   Integer Mul/Div FU's:            0
   Integer Shifter FU's:            0
   Integer Bitwise FU's:            0
   Floating Point Float Add/Sub:    0
   Floating Point Double Add/Sub:   0
   Floating Point Float Mul/Div:    0
   Floating Point Double Mul/Div:   0
   0 Cycle Compare FU's:            0
   GEP Instruction FU's:            0
   Type Conversion FU's:            0
   Other:                           0

   ========= Pipeline Register Usage =============
   Total Number of Registers:       5641
   Max Register Usage Per Cycle:    138
   Avg Register Usage Per Cycle:    12.130992
   Avg Register Size (Bytes):       5.980606

   ========= Memory Configuration =================
   Cache Bus Ports:                 0
   Shared Cache Size:               0kB
   Local Bus Ports:                 0
   Private SPM Size:                256kB
   Private Read Ports:              0
   Private Write Ports:             0
   Private Read Bus Width:          64
   Private Write Bus Width:         64
       Memory Reads:                0
       Memory Writes:               0
   ========= Power Analysis ======================
   FU Leakage Power:                0.519269 mW 
   FU Dynamic Power:                0.154621 mW 
   FU Total Power:                  0.673890 mW 

   Registers Leakage Power:          0.005281 mW 
   Registers Dynamic Power:          0.015326 mW 
       Register Reads (Bits):        132616
       Register Writes (Bits):       133658
   Registers Total Power:            0.020607 mW

   SPM Leakage Power:               0.104100 mW
   SPM Read Dynamic Power:          3.776796 mW
   SPM Write Dynamic Power:         2.457440 mW
   SPM Total Power:                 6.338336 mW

   SPM Energy Per Read Access:      0.170493 nJ
   SPM Energy Per Write Access:     0.218190 nJ

   Cache Leakage Power:             0.000000 mW
   Cache Read Dynamic Power:        0.000000 mW
   Cache Write Dynamic Power:       0.000000 mW
   Cache Total Power:               0.000000 mW

   Accelerator Power:               0.694497 mW
   Accelerator Power (SPM):         7.032833 mW
   Accelerator Power (Cache):       0.694497 mW

   ========= Area Analysis =======================
   FU Area:                         70212.562500 um^2 (0.070213 mm^2)
   Register Area:                   429.271088 um^2 (0.000429 mm^2)
   SPM Area:                        2177.365505 um^2 (0.002177 mm^2)
   Cache Area:                      0.000000 um^2 (0.000000 mm^2)

   Accelerator Area:                70641.835938 um^2 (0.070642 mm^2)
   Accelerator Area (SPM):          72819.201442 um^2 (0.072819 mm^2)
   Accelerator Area (Cache):        70641.835938 um^2 (0.070642 mm^2)

   ========= SPM Resizing  =======================
   SPM Optimized Leakage Power:     0.004248 mW
   SPM Opt Area:                    178.524902 um^2

11199778125: global: Timer #0 started at tick 11199778125
11200086875: global: Timer #2 started at tick 11200086875
11200492500: global: Timer #2 stopped at tick 11200492500. Duration: 405625
11200709375: global: DAG ID = 0
11200721875: global: Node ID = 6
11200735000: global: Node deadline difference = -2325
11200747500: global: Predicted memory time / byte = 0.000182312 us/byte
11200760000: global: Predicted memory time = 23.896 us
11200772500: global: Predicted memory time / byte = 0.000182312 us/byte
11200785000: global: Predicted memory time = 11.948 us
11200797500: global: Predicted memory time / byte = 0.000203476 us/byte
11200810000: global: Predicted memory time = 13.335 us
11200822500: global: Predicted memory time / byte = 0 us/byte
11200835000: global: Predicted memory time = 0 us
11200847500: global: Predicted memory access size = 0
11200860000: global: Predicted memory access size = 65536
11200872500: global: Predicted memory access size = 0
11200885000: global: Predicted memory access size = 0
11200968125: global: Timer #6 started at tick 11200968125
11201090000: global: Timer #7 started at tick 11201090000
11202116875: global: Timer #7 stopped at tick 11202116875. Duration: 1026875
11202319375: global: Timer #6 stopped at tick 11202319375. Duration: 1351250
11202391250: global: Timer #0 stopped at tick 11202391250. Duration: 2613125
11202405625: global: Number of accelerators running = 2
********************************************************************************
system.acctest.elem_matrix0.compute
   ========= Performance Analysis =============
   Setup Time:                      10.511874seconds
   Simulation Time:                 145.742890seconds
   System Clock:                    1.000000GHz
   Transistor Latency:              1ns
   Runtime:                         8316 cycles
   Runtime:                         8.316000 us
   Stalls:                          82 cycles
   Executed Nodes:                  8233 cycles

********************************************************************************
   ========= Performance Analysis =================
   Setup Time:                      10511873988.000000ns
   Simulation Time:                 145742890030.000000ns
   System Clock:                    1.000000GHz
   Transistor Latency:              0ns
   Runtime:                         8316 cycles
   Runtime:                         0.000001 seconds
   Stalls:                          82 cycles
       Load Only:                   0 cycles
       Store Only:                  77 cycles
       Compute Only:                0 cycles
       Compute & Store:             5 cycles
       Load & Store:                0 cycles
       Load & Compute:              0 cycles
       Load & Compute & Store:      0 cycles
   Executed Nodes:                  8233 cycles
       Load Only:                   0 cycles
       Store Only:                  11 cycles
       Compute Only:                1827 cycles
       Compute & Store:             3453 cycles
       Load & Store:                0 cycles
       Load & Compute:              774 cycles
       Load & Compute & Store:      2168 cycles

   ========= Runtime FU's ========= (Max | Avg) ===
   Counter FU's:                      32 | 0.061572
   Integer Add/Sub FU's:               0 | 0.000000
   Integer Mul/Div FU's:               0 | 0.000000
   Integer Shifter FU's:               0 | 0.000000
   Integer Bitwise FU's:               1 | 0.000120
   Floating Point Float Add/Sub:      80 | 0.302014
   Floating Point Double Add/Sub:      0 | 0.000000
   Floating Point Float Mul/Div:      35 | 0.056511
   Floating Point Double Mul/Div:      0 | 0.000000
   0 Cycle Compare FU's:              15 | 0.024828
   GEP Instruction FU's:              64 | 0.061568
   Type Conversion FU's:              66 | 0.120964

   ========= Static FU's ==========================
   Counter FU's:                    0
   Integer Add/Sub FU's:            0
   Integer Mul/Div FU's:            0
   Integer Shifter FU's:            0
   Integer Bitwise FU's:            0
   Floating Point Float Add/Sub:    0
   Floating Point Double Add/Sub:   0
   Floating Point Float Mul/Div:    0
   Floating Point Double Mul/Div:   0
   0 Cycle Compare FU's:            0
   GEP Instruction FU's:            0
   Type Conversion FU's:            0
   Other:                           0

   ========= Pipeline Register Usage =============
   Total Number of Registers:       5641
   Max Register Usage Per Cycle:    126
   Avg Register Usage Per Cycle:    27.706590
   Avg Register Size (Bytes):       5.993295

   ========= Memory Configuration =================
   Cache Bus Ports:                 0
   Shared Cache Size:               0kB
   Local Bus Ports:                 0
   Private SPM Size:                256kB
   Private Read Ports:              0
   Private Write Ports:             0
   Private Read Bus Width:          64
   Private Write Bus Width:         64
       Memory Reads:                0
       Memory Writes:               0
   ========= Power Analysis ======================
   FU Leakage Power:                1.265749 mW 
   FU Dynamic Power:                1.166708 mW 
   FU Total Power:                  2.432457 mW 

   Registers Leakage Power:          0.011908 mW 
   Registers Dynamic Power:          0.045645 mW 
       Register Reads (Bits):        230408
       Register Writes (Bits):       231961
   Registers Total Power:            0.057553 mW

   SPM Leakage Power:               0.104100 mW
   SPM Read Dynamic Power:          4.599549 mW
   SPM Write Dynamic Power:         2.880682 mW
   SPM Total Power:                 7.584331 mW

   SPM Energy Per Read Access:      0.170493 nJ
   SPM Energy Per Write Access:     0.218190 nJ

   Cache Leakage Power:             0.000000 mW
   Cache Read Dynamic Power:        0.000000 mW
   Cache Write Dynamic Power:       0.000000 mW
   Cache Total Power:               0.000000 mW

   Accelerator Power:               2.490010 mW
   Accelerator Power (SPM):         10.074342 mW
   Accelerator Power (Cache):       2.490010 mW

   ========= Area Analysis =======================
   FU Area:                         170559.593750 um^2 (0.170560 mm^2)
   Register Area:                   967.909180 um^2 (0.000968 mm^2)
   SPM Area:                        2177.365505 um^2 (0.002177 mm^2)
   Cache Area:                      0.000000 um^2 (0.000000 mm^2)

   Accelerator Area:                171527.500000 um^2 (0.171527 mm^2)
   Accelerator Area (SPM):          173704.865505 um^2 (0.173705 mm^2)
   Accelerator Area (Cache):        171527.500000 um^2 (0.171527 mm^2)

   ========= SPM Resizing  =======================
   SPM Optimized Leakage Power:     0.003887 mW
   SPM Opt Area:                    172.850411 um^2

11210396875: global: Timer #0 started at tick 11210396875
11210696875: global: Timer #2 started at tick 11210696875
11211045625: global: Timer #2 stopped at tick 11211045625. Duration: 348750
11211271250: global: DAG ID = 0
11211283750: global: Node ID = 7
11211296875: global: Node deadline difference = -2353
11211309375: global: Predicted memory time / byte = 0.000203476 us/byte
11211321875: global: Predicted memory time = 13.335 us
11211334375: global: Predicted memory time / byte = 0.000203476 us/byte
11211346875: global: Predicted memory time = 13.335 us
11211359375: global: Predicted memory time / byte = 0 us/byte
11211371875: global: Predicted memory time = 0 us
11211384375: global: Predicted memory time / byte = 0 us/byte
11211396875: global: Predicted memory time = 0 us
11211409375: global: Predicted memory access size = 0
11211421875: global: Predicted memory access size = 0
11211434375: global: Predicted memory access size = 0
11211446875: global: Predicted memory access size = 0
11211523125: global: Timer #6 started at tick 11211523125
11211640625: global: Timer #7 started at tick 11211640625
11212281625: system.acctest.elem_matrix0_dma: SRC:0x00000000821f2c00, DST:0x0000000024010020, LEN:65536
11212412500: global: Timer #7 stopped at tick 11212412500. Duration: 771875
11212438125: global: Timer #6 stopped at tick 11212438125. Duration: 915000
11212510000: global: Timer #0 stopped at tick 11212510000. Duration: 2113125
11212524375: global: Number of accelerators running = 2
11224245625: system.acctest.elem_matrix0_dma: Transfer completed in 11.964 us
11224321250: global: Timer #0 started at tick 11224321250
11224643125: global: Timer #1 started at tick 11224643125
11224701875: global: Timer #1 stopped at tick 11224701875. Duration: 58750
11224925000: global: Timer #6 started at tick 11224925000
11224988125: global: Timer #7 started at tick 11224988125
11225992500: global: Timer #7 stopped at tick 11225992500. Duration: 1004375
11226027500: global: Timer #6 stopped at tick 11226027500. Duration: 1102500
11226124375: global: Timer #0 stopped at tick 11226124375. Duration: 1803125
11226138750: global: Number of accelerators running = 2
********************************************************************************
system.acctest.elem_matrix0.compute
   ========= Performance Analysis =============
   Setup Time:                      7.137765seconds
   Simulation Time:                 195.035118seconds
   System Clock:                    1.000000GHz
   Transistor Latency:              1ns
   Runtime:                         10932 cycles
   Runtime:                         10.932000 us
   Stalls:                          1 cycles
   Executed Nodes:                  10930 cycles

********************************************************************************
   ========= Performance Analysis =================
   Setup Time:                      7137764772.000000ns
   Simulation Time:                 195035118338.000000ns
   System Clock:                    1.000000GHz
   Transistor Latency:              0ns
   Runtime:                         10932 cycles
   Runtime:                         0.000001 seconds
   Stalls:                          1 cycles
       Load Only:                   0 cycles
       Store Only:                  1 cycles
       Compute Only:                0 cycles
       Compute & Store:             0 cycles
       Load & Store:                0 cycles
       Load & Compute:              0 cycles
       Load & Compute & Store:      0 cycles
   Executed Nodes:                  10930 cycles
       Load Only:                   0 cycles
       Store Only:                  4 cycles
       Compute Only:                1 cycles
       Compute & Store:             21 cycles
       Load & Store:                0 cycles
       Load & Compute:              6 cycles
       Load & Compute & Store:      10898 cycles

   ========= Runtime FU's ========= (Max | Avg) ===
   Counter FU's:                      32 | 0.046838
   Integer Add/Sub FU's:               0 | 0.000000
   Integer Mul/Div FU's:               0 | 0.000000
   Integer Shifter FU's:               0 | 0.000000
   Integer Bitwise FU's:               1 | 0.000091
   Floating Point Float Add/Sub:       0 | 0.000000
   Floating Point Double Add/Sub:      0 | 0.000000
   Floating Point Float Mul/Div:      34 | 0.044252
   Floating Point Double Mul/Div:      0 | 0.000000
   0 Cycle Compare FU's:             102 | 0.046945
   GEP Instruction FU's:              96 | 0.046835
   Type Conversion FU's:               7 | 0.006782

   ========= Static FU's ==========================
   Counter FU's:                    0
   Integer Add/Sub FU's:            0
   Integer Mul/Div FU's:            0
   Integer Shifter FU's:            0
   Integer Bitwise FU's:            0
   Floating Point Float Add/Sub:    0
   Floating Point Double Add/Sub:   0
   Floating Point Float Mul/Div:    0
   Floating Point Double Mul/Div:   0
   0 Cycle Compare FU's:            0
   GEP Instruction FU's:            0
   Type Conversion FU's:            0
   Other:                           0

   ========= Pipeline Register Usage =============
   Total Number of Registers:       5641
   Max Register Usage Per Cycle:    137
   Avg Register Usage Per Cycle:    12.130992
   Avg Register Size (Bytes):       5.980606

   ========= Memory Configuration =================
   Cache Bus Ports:                 0
   Shared Cache Size:               0kB
   Local Bus Ports:                 0
   Private SPM Size:                256kB
   Private Read Ports:              0
   Private Write Ports:             0
   Private Read Bus Width:          64
   Private Write Bus Width:         64
       Memory Reads:                0
       Memory Writes:               0
   ========= Power Analysis ======================
   FU Leakage Power:                0.045377 mW 
   FU Dynamic Power:                0.142576 mW 
   FU Total Power:                  0.187953 mW 

   Registers Leakage Power:          0.005281 mW 
   Registers Dynamic Power:          0.015326 mW 
       Register Reads (Bits):        132616
       Register Writes (Bits):       133658
   Registers Total Power:            0.020607 mW

   SPM Leakage Power:               0.104100 mW
   SPM Read Dynamic Power:          4.784107 mW
   SPM Write Dynamic Power:         3.448926 mW
   SPM Total Power:                 8.337133 mW

   SPM Energy Per Read Access:      0.170493 nJ
   SPM Energy Per Write Access:     0.218190 nJ

   Cache Leakage Power:             0.000000 mW
   Cache Read Dynamic Power:        0.000000 mW
   Cache Write Dynamic Power:       0.000000 mW
   Cache Total Power:               0.000000 mW

   Accelerator Power:               0.208559 mW
   Accelerator Power (SPM):         8.545693 mW
   Accelerator Power (Cache):       0.208559 mW

   ========= Area Analysis =======================
   FU Area:                         5472.068359 um^2 (0.005472 mm^2)
   Register Area:                   429.271088 um^2 (0.000429 mm^2)
   SPM Area:                        2177.365505 um^2 (0.002177 mm^2)
   Cache Area:                      0.000000 um^2 (0.000000 mm^2)

   Accelerator Area:                5901.339355 um^2 (0.005901 mm^2)
   Accelerator Area (SPM):          8078.704860 um^2 (0.008079 mm^2)
   Accelerator Area (Cache):        5901.339355 um^2 (0.005901 mm^2)

   ========= SPM Resizing  =======================
   SPM Optimized Leakage Power:     0.004248 mW
   SPM Opt Area:                    178.524902 um^2

11236889375: global: Timer #0 started at tick 11236889375
11237265000: global: Timer #2 started at tick 11237265000
11237713750: global: Timer #2 stopped at tick 11237713750. Duration: 448750
11237946250: global: DAG ID = 0
11237958750: global: Node ID = 8
11237971875: global: Node deadline difference = -2384
11237984375: global: Predicted memory time / byte = 0.000203476 us/byte
11237996875: global: Predicted memory time = 26.67 us
11238009375: global: Predicted memory time / byte = 0.000203476 us/byte
11238021875: global: Predicted memory time = 13.335 us
11238034375: global: Predicted memory time / byte = 0.000182449 us/byte
11238046875: global: Predicted memory time = 11.957 us
11238059375: global: Predicted memory time / byte = 0 us/byte
11238071875: global: Predicted memory time = 0 us
11238084375: global: Predicted memory access size = 0
11238096875: global: Predicted memory access size = 65536
11238109375: global: Predicted memory access size = 0
11238121875: global: Predicted memory access size = 0
11238191875: global: Timer #6 started at tick 11238191875
11238293750: global: Timer #7 started at tick 11238293750
11238931625: system.acctest.elem_matrix0_dma: SRC:0x00000000820f2a40, DST:0x0000000024010020, LEN:65536
11239055000: global: Timer #7 stopped at tick 11239055000. Duration: 761250
11239070000: global: Timer #6 stopped at tick 11239070000. Duration: 878125
11239141875: global: Timer #0 stopped at tick 11239141875. Duration: 2252500
11239156250: global: Number of accelerators running = 2
11250902625: system.acctest.elem_matrix0_dma: Transfer completed in 11.971 us
11250979375: global: Timer #0 started at tick 11250979375
11251297500: global: Timer #1 started at tick 11251297500
11251354375: global: Timer #1 stopped at tick 11251354375. Duration: 56875
11251578125: global: Timer #6 started at tick 11251578125
11251635625: global: Timer #7 started at tick 11251635625
11252637500: global: Timer #7 stopped at tick 11252637500. Duration: 1001875
11252672500: global: Timer #6 stopped at tick 11252672500. Duration: 1094375
11252773750: global: Timer #0 stopped at tick 11252773750. Duration: 1794375
11252788125: global: Number of accelerators running = 2
********************************************************************************
system.acctest.elem_matrix0.compute
   ========= Performance Analysis =============
   Setup Time:                      7.110850seconds
   Simulation Time:                 188.470950seconds
   System Clock:                    1.000000GHz
   Transistor Latency:              1ns
   Runtime:                         10932 cycles
   Runtime:                         10.932000 us
   Stalls:                          0 cycles
   Executed Nodes:                  10931 cycles

********************************************************************************
   ========= Performance Analysis =================
   Setup Time:                      7110850292.000000ns
   Simulation Time:                 188470950458.000000ns
   System Clock:                    1.000000GHz
   Transistor Latency:              0ns
   Runtime:                         10932 cycles
   Runtime:                         0.000001 seconds
   Stalls:                          0 cycles
       Load Only:                   0 cycles
       Store Only:                  0 cycles
       Compute Only:                0 cycles
       Compute & Store:             0 cycles
       Load & Store:                0 cycles
       Load & Compute:              0 cycles
       Load & Compute & Store:      0 cycles
   Executed Nodes:                  10931 cycles
       Load Only:                   0 cycles
       Store Only:                  5 cycles
       Compute Only:                1 cycles
       Compute & Store:             21 cycles
       Load & Store:                0 cycles
       Load & Compute:              7 cycles
       Load & Compute & Store:      10897 cycles

   ========= Runtime FU's ========= (Max | Avg) ===
   Counter FU's:                      32 | 0.046838
   Integer Add/Sub FU's:               0 | 0.000000
   Integer Mul/Div FU's:               0 | 0.000000
   Integer Shifter FU's:               0 | 0.000000
   Integer Bitwise FU's:               1 | 0.000091
   Floating Point Float Add/Sub:      34 | 0.044252
   Floating Point Double Add/Sub:      0 | 0.000000
   Floating Point Float Mul/Div:       0 | 0.000000
   Floating Point Double Mul/Div:      0 | 0.000000
   0 Cycle Compare FU's:             102 | 0.046974
   GEP Instruction FU's:              96 | 0.046835
   Type Conversion FU's:               7 | 0.006782

   ========= Static FU's ==========================
   Counter FU's:                    0
   Integer Add/Sub FU's:            0
   Integer Mul/Div FU's:            0
   Integer Shifter FU's:            0
   Integer Bitwise FU's:            0
   Floating Point Float Add/Sub:    0
   Floating Point Double Add/Sub:   0
   Floating Point Float Mul/Div:    0
   Floating Point Double Mul/Div:   0
   0 Cycle Compare FU's:            0
   GEP Instruction FU's:            0
   Type Conversion FU's:            0
   Other:                           0

   ========= Pipeline Register Usage =============
   Total Number of Registers:       5641
   Max Register Usage Per Cycle:    138
   Avg Register Usage Per Cycle:    12.130992
   Avg Register Size (Bytes):       5.980606

   ========= Memory Configuration =================
   Cache Bus Ports:                 0
   Shared Cache Size:               0kB
   Local Bus Ports:                 0
   Private SPM Size:                256kB
   Private Read Ports:              0
   Private Write Ports:             0
   Private Read Bus Width:          64
   Private Write Bus Width:         64
       Memory Reads:                0
       Memory Writes:               0
   ========= Power Analysis ======================
   FU Leakage Power:                0.519269 mW 
   FU Dynamic Power:                0.154621 mW 
   FU Total Power:                  0.673890 mW 

   Registers Leakage Power:          0.005281 mW 
   Registers Dynamic Power:          0.015326 mW 
       Register Reads (Bits):        132616
       Register Writes (Bits):       133658
   Registers Total Power:            0.020607 mW

   SPM Leakage Power:               0.104100 mW
   SPM Read Dynamic Power:          5.190014 mW
   SPM Write Dynamic Power:         3.846212 mW
   SPM Total Power:                 9.140327 mW

   SPM Energy Per Read Access:      0.170493 nJ
   SPM Energy Per Write Access:     0.218190 nJ

   Cache Leakage Power:             0.000000 mW
   Cache Read Dynamic Power:        0.000000 mW
   Cache Write Dynamic Power:       0.000000 mW
   Cache Total Power:               0.000000 mW

   Accelerator Power:               0.694497 mW
   Accelerator Power (SPM):         9.834824 mW
   Accelerator Power (Cache):       0.694497 mW

   ========= Area Analysis =======================
   FU Area:                         70212.562500 um^2 (0.070213 mm^2)
   Register Area:                   429.271088 um^2 (0.000429 mm^2)
   SPM Area:                        2177.365505 um^2 (0.002177 mm^2)
   Cache Area:                      0.000000 um^2 (0.000000 mm^2)

   Accelerator Area:                70641.835938 um^2 (0.070642 mm^2)
   Accelerator Area (SPM):          72819.201442 um^2 (0.072819 mm^2)
   Accelerator Area (Cache):        70641.835938 um^2 (0.070642 mm^2)

   ========= SPM Resizing  =======================
   SPM Optimized Leakage Power:     0.004248 mW
   SPM Opt Area:                    178.524902 um^2

11263534375: global: Timer #0 started at tick 11263534375
11263771875: global: Timer #2 started at tick 11263771875
11264053750: global: Timer #2 stopped at tick 11264053750. Duration: 281875
11264166875: global: Timer #7 started at tick 11264166875
11264805875: system.acctest.elem_matrix0_dma: SRC:0x0000000024020020, DST:0x0000000082192a40, LEN:65536
11264933750: global: Timer #7 stopped at tick 11264933750. Duration: 766875
11265182500: global: Timer #0 stopped at tick 11265182500. Duration: 1648125
11265196875: global: Number of accelerators running = 2
11271146875: system.acctest.elem_matrix0_dma: Transfer completed in 6.341 us
11271222500: global: Timer #0 started at tick 11271222500
11271539375: global: Timer #1 started at tick 11271539375
11271598750: global: Timer #1 stopped at tick 11271598750. Duration: 59375
11271796875: global: DAG ID = 0
11271809375: global: Node ID = 9
11271843750: global: Node deadline difference = -2407
11271856250: global: Predicted memory time / byte = 0.000182449 us/byte
11271868750: global: Predicted memory time = 23.914 us
11271881250: global: Predicted memory time / byte = 0.000182449 us/byte
11271893750: global: Predicted memory time = 11.957 us
11271906250: global: Predicted memory time / byte = 0.000182571 us/byte
11271918750: global: Predicted memory time = 11.965 us
11271931250: global: Predicted memory time / byte = 9.66492e-05 us/byte
11271943750: global: Predicted memory time = 6.334 us
11271956250: global: Predicted memory access size = 0
11271968750: global: Predicted memory access size = 65536
11271981250: global: Predicted memory access size = 0
11271993750: global: Predicted memory access size = 65536
11272076875: global: Timer #6 started at tick 11272076875
11272188125: global: Timer #7 started at tick 11272188125
11272821625: system.acctest.elem_matrix0_dma: SRC:0x00000000821f2c00, DST:0x0000000024000020, LEN:65536
11272953125: global: Timer #7 stopped at tick 11272953125. Duration: 765000
11272975625: global: Timer #6 stopped at tick 11272975625. Duration: 898750
11273047500: global: Timer #0 stopped at tick 11273047500. Duration: 1825000
11273061875: global: Number of accelerators running = 2
11284770625: system.acctest.elem_matrix0_dma: Transfer completed in 11.949 us
11284853125: global: Timer #0 started at tick 11284853125
11285174375: global: Timer #1 started at tick 11285174375
11285228125: global: Timer #1 stopped at tick 11285228125. Duration: 53750
11285455625: global: Timer #6 started at tick 11285455625
11285546875: global: Timer #7 started at tick 11285546875
11286197375: system.acctest.elem_matrix0_dma: SRC:0x00000000820928c0, DST:0x0000000024010020, LEN:65536
11286320625: global: Timer #7 stopped at tick 11286320625. Duration: 773750
11286338125: global: Timer #6 stopped at tick 11286338125. Duration: 882500
11286435000: global: Timer #0 stopped at tick 11286435000. Duration: 1581875
11286449375: global: Number of accelerators running = 2
11298217375: system.acctest.elem_matrix0_dma: Transfer completed in 12.02 us
11298300000: global: Timer #0 started at tick 11298300000
11298621250: global: Timer #1 started at tick 11298621250
11298675000: global: Timer #1 stopped at tick 11298675000. Duration: 53750
11298964375: global: Timer #6 started at tick 11298964375
11299037500: global: Timer #7 started at tick 11299037500
11300053125: global: Timer #7 stopped at tick 11300053125. Duration: 1015625
11300095625: global: Timer #6 stopped at tick 11300095625. Duration: 1131250
11300188125: global: Timer #0 stopped at tick 11300188125. Duration: 1888125
11300202500: global: Number of accelerators running = 2
********************************************************************************
system.acctest.elem_matrix0.compute
   ========= Performance Analysis =============
   Setup Time:                      6.942260seconds
   Simulation Time:                 190.403770seconds
   System Clock:                    1.000000GHz
   Transistor Latency:              1ns
   Runtime:                         10932 cycles
   Runtime:                         10.932000 us
   Stalls:                          1 cycles
   Executed Nodes:                  10930 cycles

********************************************************************************
   ========= Performance Analysis =================
   Setup Time:                      6942260220.000000ns
   Simulation Time:                 190403770066.000000ns
   System Clock:                    1.000000GHz
   Transistor Latency:              0ns
   Runtime:                         10932 cycles
   Runtime:                         0.000001 seconds
   Stalls:                          1 cycles
       Load Only:                   0 cycles
       Store Only:                  1 cycles
       Compute Only:                0 cycles
       Compute & Store:             0 cycles
       Load & Store:                0 cycles
       Load & Compute:              0 cycles
       Load & Compute & Store:      0 cycles
   Executed Nodes:                  10930 cycles
       Load Only:                   0 cycles
       Store Only:                  4 cycles
       Compute Only:                1 cycles
       Compute & Store:             21 cycles
       Load & Store:                0 cycles
       Load & Compute:              6 cycles
       Load & Compute & Store:      10898 cycles

   ========= Runtime FU's ========= (Max | Avg) ===
   Counter FU's:                      32 | 0.046838
   Integer Add/Sub FU's:               0 | 0.000000
   Integer Mul/Div FU's:               0 | 0.000000
   Integer Shifter FU's:               0 | 0.000000
   Integer Bitwise FU's:               1 | 0.000091
   Floating Point Float Add/Sub:       0 | 0.000000
   Floating Point Double Add/Sub:      0 | 0.000000
   Floating Point Float Mul/Div:      34 | 0.044252
   Floating Point Double Mul/Div:      0 | 0.000000
   0 Cycle Compare FU's:             102 | 0.046945
   GEP Instruction FU's:              96 | 0.046835
   Type Conversion FU's:               7 | 0.006782

   ========= Static FU's ==========================
   Counter FU's:                    0
   Integer Add/Sub FU's:            0
   Integer Mul/Div FU's:            0
   Integer Shifter FU's:            0
   Integer Bitwise FU's:            0
   Floating Point Float Add/Sub:    0
   Floating Point Double Add/Sub:   0
   Floating Point Float Mul/Div:    0
   Floating Point Double Mul/Div:   0
   0 Cycle Compare FU's:            0
   GEP Instruction FU's:            0
   Type Conversion FU's:            0
   Other:                           0

   ========= Pipeline Register Usage =============
   Total Number of Registers:       5641
   Max Register Usage Per Cycle:    137
   Avg Register Usage Per Cycle:    12.130992
   Avg Register Size (Bytes):       5.980606

   ========= Memory Configuration =================
   Cache Bus Ports:                 0
   Shared Cache Size:               0kB
   Local Bus Ports:                 0
   Private SPM Size:                256kB
   Private Read Ports:              0
   Private Write Ports:             0
   Private Read Bus Width:          64
   Private Write Bus Width:         64
       Memory Reads:                0
       Memory Writes:               0
   ========= Power Analysis ======================
   FU Leakage Power:                0.045377 mW 
   FU Dynamic Power:                0.142576 mW 
   FU Total Power:                  0.187953 mW 

   Registers Leakage Power:          0.005281 mW 
   Registers Dynamic Power:          0.015326 mW 
       Register Reads (Bits):        132616
       Register Writes (Bits):       133658
   Registers Total Power:            0.020607 mW

   SPM Leakage Power:               0.104100 mW
   SPM Read Dynamic Power:          5.599688 mW
   SPM Write Dynamic Power:         4.937352 mW
   SPM Total Power:                 10.641140 mW

   SPM Energy Per Read Access:      0.170493 nJ
   SPM Energy Per Write Access:     0.218190 nJ

   Cache Leakage Power:             0.000000 mW
   Cache Read Dynamic Power:        0.000000 mW
   Cache Write Dynamic Power:       0.000000 mW
   Cache Total Power:               0.000000 mW

   Accelerator Power:               0.208559 mW
   Accelerator Power (SPM):         10.849700 mW
   Accelerator Power (Cache):       0.208559 mW

[...]
22466595625: global: Timer #2 stopped at tick 22466595625. Duration: 238750
22466701250: global: Timer #7 started at tick 22466701250
22467333750: system.acctest.elem_matrix0_dma: SRC:0x0000000024020020, DST:0x000000008342f740, LEN:65536
22467461875: global: Timer #7 stopped at tick 22467461875. Duration: 760625
22467686250: global: Timer #0 stopped at tick 22467686250. Duration: 1561875
22467700625: global: Number of accelerators running = 1
22473684750: system.acctest.elem_matrix0_dma: Transfer completed in 6.351 us
22473760000: global: Timer #0 started at tick 22473760000
22474063750: global: Timer #1 started at tick 22474063750
22474117500: global: Timer #1 stopped at tick 22474117500. Duration: 53750
22474316875: global: DAG ID = 2
22474329375: global: Node ID = 142
22474351250: global: Node deadline difference = 4443
22474363750: global: Predicted memory time / byte = 0.00018306 us/byte
22474376250: global: Predicted memory time = 11.997 us
22474388750: global: Predicted memory time / byte = 0.00018306 us/byte
22474401250: global: Predicted memory time = 11.997 us
22474413750: global: Predicted memory time / byte = 0.000183014 us/byte
22474426250: global: Predicted memory time = 11.994 us
22474438750: global: Predicted memory time / byte = 9.66339e-05 us/byte
22474451250: global: Predicted memory time = 6.333 us
22474463750: global: Predicted memory access size = 0
22474476250: global: Predicted memory access size = 65536
22474488750: global: Predicted memory access size = 0
22474501250: global: Predicted memory access size = 65536
22474581250: global: Timer #6 started at tick 22474581250
22474763125: global: Timer #7 started at tick 22474763125
22475391625: system.acctest.elem_matrix0_dma: SRC:0x000000008285c440, DST:0x0000000024000020, LEN:65536
22475515000: global: Timer #7 stopped at tick 22475515000. Duration: 751875
22475530000: global: Timer #6 stopped at tick 22475530000. Duration: 948750
22475601875: global: Timer #0 stopped at tick 22475601875. Duration: 1841875
22475616250: global: Number of accelerators running = 1
22487376625: system.acctest.elem_matrix0_dma: Transfer completed in 11.985 us
22487452500: global: Timer #0 started at tick 22487452500
22487762500: global: Timer #1 started at tick 22487762500
22487816250: global: Timer #1 stopped at tick 22487816250. Duration: 53750
22488043750: global: Timer #6 started at tick 22488043750
22488119375: global: Timer #7 started at tick 22488119375
22488751625: system.acctest.elem_matrix0_dma: SRC:0x00000000828ec440, DST:0x0000000024010020, LEN:65536
22488881250: global: Timer #7 stopped at tick 22488881250. Duration: 761875
22488906250: global: Timer #6 stopped at tick 22488906250. Duration: 862500
22488996875: global: Timer #0 stopped at tick 22488996875. Duration: 1544375
22489011250: global: Number of accelerators running = 1
22500748625: system.acctest.elem_matrix0_dma: Transfer completed in 11.997 us
22500824375: global: Timer #0 started at tick 22500824375
22501137500: global: Timer #1 started at tick 22501137500
22501191250: global: Timer #1 stopped at tick 22501191250. Duration: 53750
22501472500: global: Timer #6 started at tick 22501472500
22501538750: global: Timer #7 started at tick 22501538750
22502543125: global: Timer #7 stopped at tick 22502543125. Duration: 1004375
22502586250: global: Timer #6 stopped at tick 22502586250. Duration: 1113750
22502676875: global: Timer #0 stopped at tick 22502676875. Duration: 1852500
22502691250: global: Number of accelerators running = 1
********************************************************************************
system.acctest.elem_matrix0.compute
   ========= Performance Analysis =============
   Setup Time:                      5.692906seconds
   Simulation Time:                 98.148453seconds
   System Clock:                    1.000000GHz
   Transistor Latency:              1ns
   Runtime:                         10932 cycles
   Runtime:                         10.932000 us
   Stalls:                          0 cycles
   Executed Nodes:                  10931 cycles

********************************************************************************
   ========= Performance Analysis =================
   Setup Time:                      5692906039.000000ns
   Simulation Time:                 98148453493.000000ns
   System Clock:                    1.000000GHz
   Transistor Latency:              0ns
   Runtime:                         10932 cycles
   Runtime:                         0.000001 seconds
   Stalls:                          0 cycles
       Load Only:                   0 cycles
       Store Only:                  0 cycles
       Compute Only:                0 cycles
       Compute & Store:             0 cycles
       Load & Store:                0 cycles
       Load & Compute:              0 cycles
       Load & Compute & Store:      0 cycles
   Executed Nodes:                  10931 cycles
       Load Only:                   0 cycles
       Store Only:                  5 cycles
       Compute Only:                1 cycles
       Compute & Store:             21 cycles
       Load & Store:                0 cycles
       Load & Compute:              7 cycles
       Load & Compute & Store:      10897 cycles

   ========= Runtime FU's ========= (Max | Avg) ===
   Counter FU's:                      32 | 0.046838
   Integer Add/Sub FU's:               0 | 0.000000
   Integer Mul/Div FU's:               0 | 0.000000
   Integer Shifter FU's:               0 | 0.000000
   Integer Bitwise FU's:               1 | 0.000091
   Floating Point Float Add/Sub:      34 | 0.044252
   Floating Point Double Add/Sub:      0 | 0.000000
   Floating Point Float Mul/Div:       0 | 0.000000
   Floating Point Double Mul/Div:      0 | 0.000000
   0 Cycle Compare FU's:             102 | 0.046974
   GEP Instruction FU's:              96 | 0.046835
   Type Conversion FU's:               7 | 0.006782

   ========= Static FU's ==========================
   Counter FU's:                    0
   Integer Add/Sub FU's:            0
   Integer Mul/Div FU's:            0
   Integer Shifter FU's:            0
   Integer Bitwise FU's:            0
   Floating Point Float Add/Sub:    0
   Floating Point Double Add/Sub:   0
   Floating Point Float Mul/Div:    0
   Floating Point Double Mul/Div:   0
   0 Cycle Compare FU's:            0
   GEP Instruction FU's:            0
   Type Conversion FU's:            0
   Other:                           0

   ========= Pipeline Register Usage =============
   Total Number of Registers:       5641
   Max Register Usage Per Cycle:    138
   Avg Register Usage Per Cycle:    12.130992
   Avg Register Size (Bytes):       5.980606

   ========= Memory Configuration =================
   Cache Bus Ports:                 0
   Shared Cache Size:               0kB
   Local Bus Ports:                 0
   Private SPM Size:                256kB
   Private Read Ports:              0
   Private Write Ports:             0
   Private Read Bus Width:          64
   Private Write Bus Width:         64
       Memory Reads:                0
       Memory Writes:               0
   ========= Power Analysis ======================
   FU Leakage Power:                0.519269 mW 
   FU Dynamic Power:                0.154621 mW 
   FU Total Power:                  0.673890 mW 

   Registers Leakage Power:          0.005281 mW 
   Registers Dynamic Power:          0.015326 mW 
       Register Reads (Bits):        132616
       Register Writes (Bits):       133658
   Registers Total Power:            0.020607 mW

   SPM Leakage Power:               0.104100 mW
   SPM Read Dynamic Power:          34.561544 mW
   SPM Write Dynamic Power:         26.040313 mW
   SPM Total Power:                 60.705957 mW

   SPM Energy Per Read Access:      0.170493 nJ
   SPM Energy Per Write Access:     0.218190 nJ

   Cache Leakage Power:             0.000000 mW
   Cache Read Dynamic Power:        0.000000 mW
   Cache Write Dynamic Power:       0.000000 mW
   Cache Total Power:               0.000000 mW

   Accelerator Power:               0.694497 mW
   Accelerator Power (SPM):         61.400454 mW
   Accelerator Power (Cache):       0.694497 mW

   ========= Area Analysis =======================
   FU Area:                         70212.562500 um^2 (0.070213 mm^2)
   Register Area:                   429.271088 um^2 (0.000429 mm^2)
   SPM Area:                        2177.365505 um^2 (0.002177 mm^2)
   Cache Area:                      0.000000 um^2 (0.000000 mm^2)

   Accelerator Area:                70641.835938 um^2 (0.070642 mm^2)
   Accelerator Area (SPM):          72819.201442 um^2 (0.072819 mm^2)
   Accelerator Area (Cache):        70641.835938 um^2 (0.070642 mm^2)

   ========= SPM Resizing  =======================
   SPM Optimized Leakage Power:     0.004248 mW
   SPM Opt Area:                    178.524902 um^2

22513429375: global: Timer #0 started at tick 22513429375
22513639375: global: Timer #7 started at tick 22513639375
22514290875: system.acctest.elem_matrix0_dma: SRC:0x0000000024030020, DST:0x00000000828fc440, LEN:65536
22514426875: global: Timer #7 stopped at tick 22514426875. Duration: 787500
22514655625: global: Timer #0 stopped at tick 22514655625. Duration: 1226250
22514670000: global: Number of accelerators running = 1
22520627875: system.acctest.elem_matrix0_dma: Transfer completed in 6.337 us
22520711250: global: Timer #0 started at tick 22520711250
22521038750: global: Timer #1 started at tick 22521038750
22521092500: global: Timer #1 stopped at tick 22521092500. Duration: 53750
22521291875: global: DAG ID = 0
22521304375: global: Node ID = 119
22521328125: global: DAG execution time = 11431
22521341250: global: DAG deadline difference = 4431
22521358125: global: Node deadline difference = 4431
22521370625: global: Predicted memory time / byte = 0.000183594 us/byte
22521383125: global: Predicted memory time = 24.064 us
22521395625: global: Predicted memory time / byte = 0.000183594 us/byte
22521408125: global: Predicted memory time = 12.032 us
22521420625: global: Predicted memory time / byte = 0.000182823 us/byte
22521433125: global: Predicted memory time = 23.963 us
22521445625: global: Predicted memory time / byte = 9.67102e-05 us/byte
22521458125: global: Predicted memory time = 6.338 us
22521470625: global: Predicted memory access size = 0
22521483125: global: Predicted memory access size = 131072
22521495625: global: Predicted memory access size = 0
22521508125: global: Predicted memory access size = 65536
22521588125: global: Timer #6 started at tick 22521588125
22521676250: global: Timer #7 started at tick 22521676250
22522304500: system.acctest.elem_matrix0_dma: SRC:0x000000008342f740, DST:0x0000000024000020, LEN:65536
22522427500: global: Timer #7 stopped at tick 22522427500. Duration: 751250
22522442500: global: Timer #6 stopped at tick 22522442500. Duration: 854375
22522535625: global: Timer #0 stopped at tick 22522535625. Duration: 1824375
22522550000: global: Number of accelerators running = 1
22534280500: system.acctest.elem_matrix0_dma: Transfer completed in 11.976 us
22534356250: global: Timer #0 started at tick 22534356250
22534665000: global: Timer #1 started at tick 22534665000
22534718750: global: Timer #1 stopped at tick 22534718750. Duration: 53750
22534941875: global: Timer #6 started at tick 22534941875
22535010625: global: Timer #7 started at tick 22535010625
22535642375: system.acctest.elem_matrix0_dma: SRC:0x000000008341f740, DST:0x0000000024010020, LEN:65536
22535765625: global: Timer #7 stopped at tick 22535765625. Duration: 755000
22535791250: global: Timer #6 stopped at tick 22535791250. Duration: 849375
22535896250: global: Timer #0 stopped at tick 22535896250. Duration: 1540000
22535910625: global: Number of accelerators running = 1
22547658375: system.acctest.elem_matrix0_dma: Transfer completed in 12.016 us
22547743125: global: Timer #0 started at tick 22547743125
22548060000: global: Timer #1 started at tick 22548060000
22548113750: global: Timer #1 stopped at tick 22548113750. Duration: 53750
22548403750: global: Timer #6 started at tick 22548403750
22548475625: global: Timer #7 started at tick 22548475625
22549475000: global: Timer #7 stopped at tick 22549475000. Duration: 999375
22549511250: global: Timer #6 stopped at tick 22549511250. Duration: 1107500
22549606875: global: Timer #0 stopped at tick 22549606875. Duration: 1863750
22549621250: global: Number of accelerators running = 1
********************************************************************************
system.acctest.elem_matrix0.compute
   ========= Performance Analysis =============
   Setup Time:                      6.130318seconds
   Simulation Time:                 93.236484seconds
   System Clock:                    1.000000GHz
   Transistor Latency:              1ns
   Runtime:                         10932 cycles
   Runtime:                         10.932000 us
   Stalls:                          1 cycles
   Executed Nodes:                  10930 cycles

********************************************************************************
   ========= Performance Analysis =================
   Setup Time:                      6130318336.000000ns
   Simulation Time:                 93236483837.000000ns
   System Clock:                    1.000000GHz
   Transistor Latency:              0ns
   Runtime:                         10932 cycles
   Runtime:                         0.000001 seconds
   Stalls:                          1 cycles
       Load Only:                   0 cycles
       Store Only:                  1 cycles
       Compute Only:                0 cycles
       Compute & Store:             0 cycles
       Load & Store:                0 cycles
       Load & Compute:              0 cycles
       Load & Compute & Store:      0 cycles
   Executed Nodes:                  10930 cycles
       Load Only:                   0 cycles
       Store Only:                  4 cycles
       Compute Only:                1 cycles
       Compute & Store:             21 cycles
       Load & Store:                0 cycles
       Load & Compute:              6 cycles
       Load & Compute & Store:      10898 cycles

   ========= Runtime FU's ========= (Max | Avg) ===
   Counter FU's:                      32 | 0.046838
   Integer Add/Sub FU's:               0 | 0.000000
   Integer Mul/Div FU's:               0 | 0.000000
   Integer Shifter FU's:               0 | 0.000000
   Integer Bitwise FU's:               1 | 0.000091
   Floating Point Float Add/Sub:       0 | 0.000000
   Floating Point Double Add/Sub:      0 | 0.000000
   Floating Point Float Mul/Div:      34 | 0.044252
   Floating Point Double Mul/Div:      0 | 0.000000
   0 Cycle Compare FU's:             102 | 0.046945
   GEP Instruction FU's:              96 | 0.046835
   Type Conversion FU's:               7 | 0.006782

   ========= Static FU's ==========================
   Counter FU's:                    0
   Integer Add/Sub FU's:            0
   Integer Mul/Div FU's:            0
   Integer Shifter FU's:            0
   Integer Bitwise FU's:            0
   Floating Point Float Add/Sub:    0
   Floating Point Double Add/Sub:   0
   Floating Point Float Mul/Div:    0
   Floating Point Double Mul/Div:   0
   0 Cycle Compare FU's:            0
   GEP Instruction FU's:            0
   Type Conversion FU's:            0
   Other:                           0

   ========= Pipeline Register Usage =============
   Total Number of Registers:       5641
   Max Register Usage Per Cycle:    137
   Avg Register Usage Per Cycle:    12.130992
   Avg Register Size (Bytes):       5.980606

   ========= Memory Configuration =================
   Cache Bus Ports:                 0
   Shared Cache Size:               0kB
   Local Bus Ports:                 0
   Private SPM Size:                256kB
   Private Read Ports:              0
   Private Write Ports:             0
   Private Read Bus Width:          64
   Private Write Bus Width:         64
       Memory Reads:                0
       Memory Writes:               0
   ========= Power Analysis ======================
   FU Leakage Power:                0.045377 mW 
   FU Dynamic Power:                0.142576 mW 
   FU Total Power:                  0.187953 mW 

   Registers Leakage Power:          0.005281 mW 
   Registers Dynamic Power:          0.015326 mW 
       Register Reads (Bits):        132616
       Register Writes (Bits):       133658
   Registers Total Power:            0.020607 mW

   SPM Leakage Power:               0.104100 mW
   SPM Read Dynamic Power:          34.611606 mW
   SPM Write Dynamic Power:         26.091908 mW
   SPM Total Power:                 60.807614 mW

   SPM Energy Per Read Access:      0.170493 nJ
   SPM Energy Per Write Access:     0.218190 nJ

   Cache Leakage Power:             0.000000 mW
   Cache Read Dynamic Power:        0.000000 mW
   Cache Write Dynamic Power:       0.000000 mW
   Cache Total Power:               0.000000 mW

   Accelerator Power:               0.208559 mW
   Accelerator Power (SPM):         61.016174 mW
   Accelerator Power (Cache):       0.208559 mW

   ========= Area Analysis =======================
   FU Area:                         5472.068359 um^2 (0.005472 mm^2)
   Register Area:                   429.271088 um^2 (0.000429 mm^2)
   SPM Area:                        2177.365505 um^2 (0.002177 mm^2)
   Cache Area:                      0.000000 um^2 (0.000000 mm^2)

   Accelerator Area:                5901.339355 um^2 (0.005901 mm^2)
   Accelerator Area (SPM):          8078.704860 um^2 (0.008079 mm^2)
   Accelerator Area (Cache):        5901.339355 um^2 (0.005901 mm^2)

   ========= SPM Resizing  =======================
   SPM Optimized Leakage Power:     0.004248 mW
   SPM Opt Area:                    178.524902 um^2

22560372500: global: Timer #0 started at tick 22560372500
22560575625: global: Timer #7 started at tick 22560575625
22561207375: system.acctest.elem_matrix0_dma: SRC:0x0000000024020020, DST:0x000000008343f740, LEN:65536
22561344375: global: Timer #7 stopped at tick 22561344375. Duration: 768750
22561578125: global: Timer #0 stopped at tick 22561578125. Duration: 1205625
22561592500: global: Number of accelerators running = 1
22567690375: system.acctest.elem_matrix0_dma: Transfer completed in 6.483 us
22567766250: global: Timer #0 started at tick 22567766250
22568070000: global: Timer #1 started at tick 22568070000
22568123750: global: Timer #1 stopped at tick 22568123750. Duration: 53750
22568321875: global: DAG ID = 2
22568334375: global: Node ID = 143
22568351875: global: DAG execution time = 11478
22568365000: global: DAG deadline difference = 4478
22568381875: global: Node deadline difference = 4478
22568394375: global: Predicted memory time / byte = 0.000183014 us/byte
22568406875: global: Predicted memory time = 23.988 us
22568419375: global: Predicted memory time / byte = 0.000183014 us/byte
22568431875: global: Predicted memory time = 11.994 us
22568444375: global: Predicted memory time / byte = 0.000182968 us/byte
22568456875: global: Predicted memory time = 23.982 us
22568469375: global: Predicted memory time / byte = 9.86328e-05 us/byte
22568481875: global: Predicted memory time = 6.464 us
22568494375: global: Predicted memory access size = 0
22568506875: global: Predicted memory access size = 131072
22568519375: global: Predicted memory access size = 0
22568531875: global: Predicted memory access size = 65536
22568638750: global: Timer #0 stopped at tick 22568638750. Duration: 872500
22568653125: global: Number of accelerators running = 0
22568733125: global: Number of forwards = 34
22568877500: global: Number of colocations = 23
22568896250: global: Number of DAG deadlines met = 1
22568915000: global: Number of node deadlines met = 140
22568948750: global: Total predicted compute time = 8872 us
Exiting @ tick 22569093125 because m5_exit instruction encountered
