gem5 Simulator System.  http://gem5.org
gem5 is copyrighted software; use the --copyright option for details.

gem5 compiled Oct  4 2023 20:26:28
gem5 started Oct  5 2023 21:06:01
gem5 executing on node4x10a.cs.rochester.edu, pid 48261
command line: /u/sgupta45/gem5-SALAM/build/ARM/gem5_bus.opt --debug-flags=HWACC,CommInterface,LLVMInterface,StreamDma,NoncoherentDma,TickTimer,SchedulerStats --outdir=BM_ARM_OUT/comb_2_opt_flush_opt_fwd/canny_1_deblur_1_gru_0_harris_0_lstm_0_GEDF_D configs/SALAM/scheduler.py --mem-size=4GB --mem-type=LPDDR5_6400_1x16_BG_BL32 --kernel=/u/sgupta45/gem5-SALAM/benchmarks/scheduler/sw/bin_comb_2/canny_1_deblur_1_gru_0_harris_0_lstm_0_GEDF_D.elf --vans-config-path=/u/sgupta45/VANS/config --disk-image=/u/sgupta45/gem5-SALAM/baremetal/common/fake.iso --machine-type=VExpress_GEM5_V1 --dtb-file=none --bare-metal --cpu-type=ex5_LITTLE --cpu-clock=1.6GHz --accpath=/u/sgupta45/gem5-SALAM/benchmarks --caches --cacheline_size=64 --l1d_size=32kB --l1d_assoc=4 --l1i_size=32kB --l1i_assoc=2

info: Standard input is not a terminal, disabling listeners.
Global frequency set at 1000000000000 ticks per second
Cycle Counts Loaded!
Cycle Counts Loaded!
Cycle Counts Loaded!
Cycle Counts Loaded!
Cycle Counts Loaded!
Cycle Counts Loaded!
Cycle Counts Loaded!
Cycle Counts Loaded!
Cycle Counts Loaded!
Cycle Counts Loaded!
Cycle Counts Loaded!
**** REAL SIMULATION ****
3838750: global: Timer #8 started at tick 3838750
7260625: global: Timer #8 stopped at tick 7260625. Duration: 3421875
7330625: global: Timer #8 started at tick 7330625
16689375: global: Timer #8 stopped at tick 16689375. Duration: 9358750
17091875: global: Timer #8 started at tick 17091875
29543750: global: Timer #8 stopped at tick 29543750. Duration: 12451875
30230000: global: Timer #8 started at tick 30230000
30283750: global: Timer #8 stopped at tick 30283750. Duration: 53750
30309375: global: Timer #8 started at tick 30309375
42766250: global: Timer #8 stopped at tick 42766250. Duration: 12456875
45771875: global: Timer #8 started at tick 45771875
45807500: global: Timer #8 stopped at tick 45807500. Duration: 35625
45833750: global: Timer #8 started at tick 45833750
45863125: global: Timer #8 stopped at tick 45863125. Duration: 29375
45923125: global: Timer #8 started at tick 45923125
58376250: global: Timer #8 stopped at tick 58376250. Duration: 12453125
58395000: global: Timer #8 started at tick 58395000
70855625: global: Timer #8 stopped at tick 70855625. Duration: 12460625
70873125: global: Timer #8 started at tick 70873125
83336250: global: Timer #8 stopped at tick 83336250. Duration: 12463125
83353750: global: Timer #8 started at tick 83353750
95811875: global: Timer #8 stopped at tick 95811875. Duration: 12458125
95828750: global: Timer #8 started at tick 95828750
108282500: global: Timer #8 stopped at tick 108282500. Duration: 12453750
108300000: global: Timer #8 started at tick 108300000
120755625: global: Timer #8 stopped at tick 120755625. Duration: 12455625
120772500: global: Timer #8 started at tick 120772500
133226250: global: Timer #8 stopped at tick 133226250. Duration: 12453750
133706875: global: Timer #8 started at tick 133706875
146167500: global: Timer #8 stopped at tick 146167500. Duration: 12460625
146508125: global: Timer #8 started at tick 146508125
149647500: global: Timer #8 stopped at tick 149647500. Duration: 3139375
150616250: global: Timer #8 started at tick 150616250
150661250: global: Timer #8 stopped at tick 150661250. Duration: 45000
150678750: global: Timer #8 started at tick 150678750
150720000: global: Timer #8 stopped at tick 150720000. Duration: 41250
247373750: global: Timer #8 started at tick 247373750
259875000: global: Timer #8 stopped at tick 259875000. Duration: 12501250
259893750: global: Timer #8 started at tick 259893750
272347500: global: Timer #8 stopped at tick 272347500. Duration: 12453750
272365000: global: Timer #8 started at tick 272365000
284820625: global: Timer #8 stopped at tick 284820625. Duration: 12455625
284908750: global: Timer #8 started at tick 284908750
297356250: global: Timer #8 stopped at tick 297356250. Duration: 12447500
298233125: global: Timer #8 started at tick 298233125
301467500: global: Timer #8 stopped at tick 301467500. Duration: 3234375
301484375: global: Timer #8 started at tick 301484375
310832500: global: Timer #8 stopped at tick 310832500. Duration: 9348125
311171250: global: Timer #8 started at tick 311171250
323634375: global: Timer #8 stopped at tick 323634375. Duration: 12463125
333033750: global: Timer #2 started at tick 333033750
333378750: global: Timer #2 stopped at tick 333378750. Duration: 345000
335770625: global: Timer #2 started at tick 335770625
336073125: global: Timer #2 stopped at tick 336073125. Duration: 302500
336828750: global: Timer #6 started at tick 336828750
337325625: global: Timer #7 started at tick 337325625
338045875: system.acctest.isp0_dma: SRC:0x0000000082092e80, DST:0x0000000027000020, LEN:16900
338368125: global: Timer #7 stopped at tick 338368125. Duration: 1042500
338524375: global: Timer #6 stopped at tick 338524375. Duration: 1695625
338651875: global: Number of accelerators running = 1
340982875: system.acctest.isp0_dma: Transfer completed in 2.937 us
341569375: global: Timer #0 started at tick 341569375
341900000: global: Timer #6 started at tick 341900000
342277500: global: Timer #7 started at tick 342277500
342802500: global: Timer #7 stopped at tick 342802500. Duration: 525000
343094375: global: Timer #6 stopped at tick 343094375. Duration: 1194375
343460625: global: Timer #0 stopped at tick 343460625. Duration: 1891250
343479375: global: Number of accelerators running = 1
********************************************************************************
system.acctest.isp0.compute
   ========= Performance Analysis =============
   Setup Time:                      0.273793seconds
   Simulation Time:                 772.513seconds
   System Clock:                    1GHz
   Transistor Latency:              1ns
   Runtime:                         34882 cycles
   Runtime:                         34.882 us
   Stalls:                          1 cycles
   Executed Nodes:                  34880 cycles

********************************************************************************
   ========= Performance Analysis =================
   Setup Time:                      2.73793e+08ns
   Simulation Time:                 7.72513e+11ns
   System Clock:                    1GHz
   Transistor Latency:              0ns
   Runtime:                         34882 cycles
   Runtime:                         3.4882e-06 seconds
   Stalls:                          1 cycles
       Load Only:                   0 cycles
       Store Only:                  1 cycles
       Compute Only:                0 cycles
       Compute & Store:             0 cycles
       Load & Store:                0 cycles
       Load & Compute:              0 cycles
       Load & Compute & Store:      0 cycles
   Executed Nodes:                  34880 cycles
       Load Only:                   0 cycles
       Store Only:                  1 cycles
       Compute Only:                3453 cycles
       Compute & Store:             19014 cycles
       Load & Store:                0 cycles
       Load & Compute:              2467 cycles
       Load & Compute & Store:      9945 cycles

   ========= Runtime FU's ========= (Max | Avg) ===
   Counter FU's:                      10 | 0.118075
   Integer Add/Sub FU's:              76 | 0.082082
   Integer Mul/Div FU's:              11 | 0.043888
   Integer Shifter FU's:              42 | 0.055974
   Integer Bitwise FU's:               4 | 0.059443
   Floating Point Float Add/Sub:      53 | 0.116839
   Floating Point Double Add/Sub:      0 | 0.000000
   Floating Point Float Mul/Div:      76 | 0.625626
   Floating Point Double Mul/Div:      0 | 0.000000
   0 Cycle Compare FU's:              85 | 0.664984
   GEP Instruction FU's:              33 | 0.117424
   Type Conversion FU's:             110 | 0.379700

   ========= Static FU's ==========================
   Counter FU's:                    0
   Integer Add/Sub FU's:            0
   Integer Mul/Div FU's:            0
   Integer Shifter FU's:            0
   Integer Bitwise FU's:            0
   Floating Point Float Add/Sub:    0
   Floating Point Double Add/Sub:   0
   Floating Point Float Mul/Div:    0
   Floating Point Double Mul/Div:   0
   0 Cycle Compare FU's:            0
   GEP Instruction FU's:            0
   Type Conversion FU's:            0
   Other:                           0

   ========= Pipeline Register Usage =============
   Total Number of Registers:       1620
   Max Register Usage Per Cycle:    151
   Avg Register Usage Per Cycle:    58.744711
   Avg Register Size (Bytes):       5.073357

   ========= Memory Configuration =================
   Cache Bus Ports:                 0
   Shared Cache Size:               0kB
   Local Bus Ports:                 0
   Private SPM Size:                112kB
   Private Read Ports:              0
   Private Write Ports:             0
   Private Read Bus Width:          64
   Private Write Bus Width:         64
       Memory Reads:                0
       Memory Writes:               0
   ========= Power Analysis ======================
   FU Leakage Power:                1.637787 mW 
   FU Dynamic Power:                9.655087 mW 
   FU Total Power:                  11.292874 mW 

   Registers Leakage Power:          0.021654 mW 
   Registers Dynamic Power:          3.085961 mW 
       Register Reads (Bits):        2049133
       Register Writes (Bits):       2049168
   Registers Total Power:            3.107615 mW

   SPM Leakage Power:               0.061081 mW
   SPM Read Dynamic Power:          11.103730 mW
   SPM Write Dynamic Power:         7.385230 mW
   SPM Total Power:                 18.550041 mW

   SPM Energy Per Read Access:      0.142059 nJ
   SPM Energy Per Write Access:     0.255513 nJ

   Cache Leakage Power:             0.000000 mW
   Cache Read Dynamic Power:        0.000000 mW
   Cache Write Dynamic Power:       0.000000 mW
   Cache Total Power:               0.000000 mW

   Accelerator Power:               14.400490 mW
   Accelerator Power (SPM):         32.950531 mW
   Accelerator Power (Cache):       14.400490 mW

   ========= Area Analysis =======================
   FU Area:                         176023.796875 um^2 (0.176024 mm^2)
   Register Area:                   1760.064941 um^2 (0.001760 mm^2)
   SPM Area:                        2165.394891 um^2 (0.002165 mm^2)
   Cache Area:                      0.000000 um^2 (0.000000 mm^2)

   Accelerator Area:                177783.859375 um^2 (0.177784 mm^2)
   Accelerator Area (SPM):          179949.254266 um^2 (0.179949 mm^2)
   Accelerator Area (Cache):        177783.859375 um^2 (0.177784 mm^2)

   ========= SPM Resizing  =======================
   SPM Optimized Leakage Power:     0.005964 mW
   SPM Opt Area:                    422.108128 um^2

377653125: global: Timer #0 started at tick 377653125
377954375: global: Timer #2 started at tick 377954375
378260000: global: Timer #2 stopped at tick 378260000. Duration: 305625
379085000: global: DAG ID = 0
379103125: global: Node ID = 0
379165000: global: Node deadline difference = -13521
379183125: global: Predicted memory time / byte = 0 us/byte
379201250: global: Predicted memory time = 0 us
379219375: global: Predicted memory time / byte = 0 us/byte
379237500: global: Predicted memory time = 0 us
379300000: global: Predicted memory time / byte = 0 us/byte
379318125: global: Predicted memory time = 0 us
379336250: global: Predicted memory time / byte = 0 us/byte
379354375: global: Predicted memory time = 0 us
379372500: global: Predicted memory access size = 0
379390625: global: Predicted memory access size = 16900
379452500: global: Predicted memory access size = 0
379471250: global: Predicted memory access size = 0
379663750: global: Timer #6 started at tick 379663750
380138750: global: Timer #7 started at tick 380138750
380816625: system.acctest.grayscale0_dma: SRC:0x0000000027010224, DST:0x0000000025000020, LEN:49152
381076875: global: Timer #7 stopped at tick 381076875. Duration: 938125
381227500: global: Timer #6 stopped at tick 381227500. Duration: 1563750
381357500: global: Timer #6 started at tick 381357500
381660625: global: Timer #7 started at tick 381660625
382306000: system.acctest.isp0_dma: SRC:0x00000000821888c0, DST:0x0000000027000020, LEN:16900
382438125: global: Timer #7 stopped at tick 382438125. Duration: 777500
382508125: global: Timer #6 stopped at tick 382508125. Duration: 1150625
382563125: global: Timer #0 stopped at tick 382563125. Duration: 4910000
382577500: global: Number of accelerators running = 2
385656000: system.acctest.isp0_dma: Transfer completed in 3.35 us
385731250: global: Timer #0 started at tick 385731250
385889375: global: Timer #6 started at tick 385889375
385932500: global: Timer #7 started at tick 385932500
386451250: global: Timer #7 stopped at tick 386451250. Duration: 518750
386510000: global: Timer #6 stopped at tick 386510000. Duration: 620625
386617500: global: Timer #0 stopped at tick 386617500. Duration: 886250
386631875: global: Number of accelerators running = 2
390386625: system.acctest.grayscale0_dma: Transfer completed in 9.57 us
390481250: global: Timer #0 started at tick 390481250
390640625: global: Timer #6 started at tick 390640625
390776250: global: Timer #7 started at tick 390776250
391217500: global: Timer #7 stopped at tick 391217500. Duration: 441250
391438750: global: Timer #6 stopped at tick 391438750. Duration: 798125
391550000: global: Timer #0 stopped at tick 391550000. Duration: 1068750
391564375: global: Number of accelerators running = 2
********************************************************************************
system.acctest.grayscale0.compute
   ========= Performance Analysis =============
   Setup Time:                      0.009988seconds
   Simulation Time:                 541.966069seconds
   System Clock:                    1.000000GHz
   Transistor Latency:              1ns
   Runtime:                         10263 cycles
   Runtime:                         10.263000 us
   Stalls:                          1 cycles
   Executed Nodes:                  10261 cycles

********************************************************************************
   ========= Performance Analysis =================
   Setup Time:                      9987734.000000ns
   Simulation Time:                 541966069449.000000ns
   System Clock:                    1.000000GHz
   Transistor Latency:              0ns
   Runtime:                         10263 cycles
   Runtime:                         0.000001 seconds
   Stalls:                          1 cycles
       Load Only:                   0 cycles
       Store Only:                  1 cycles
       Compute Only:                0 cycles
       Compute & Store:             0 cycles
       Load & Store:                0 cycles
       Load & Compute:              0 cycles
       Load & Compute & Store:      0 cycles
   Executed Nodes:                  10261 cycles
       Load Only:                   0 cycles
       Store Only:                  1 cycles
       Compute Only:                88 cycles
       Compute & Store:             344 cycles
       Load & Store:                0 cycles
       Load & Compute:              1981 cycles
       Load & Compute & Store:      7847 cycles

   ========= Runtime FU's ========= (Max | Avg) ===
   Counter FU's:                      24 | 0.199556
   Integer Add/Sub FU's:               0 | 0.000000
   Integer Mul/Div FU's:               8 | 0.199552
   Integer Shifter FU's:               0 | 0.000000
   Integer Bitwise FU's:               1 | 0.000097
   Floating Point Float Add/Sub:      49 | 0.114264
   Floating Point Double Add/Sub:      0 | 0.000000
   Floating Point Float Mul/Div:      42 | 0.114129
   Floating Point Double Mul/Div:      0 | 0.000000
   0 Cycle Compare FU's:               9 | 0.066626
   GEP Instruction FU's:              36 | 0.177452
   Type Conversion FU's:              76 | 0.401969

   ========= Static FU's ==========================
   Counter FU's:                    0
   Integer Add/Sub FU's:            0
   Integer Mul/Div FU's:            0
   Integer Shifter FU's:            0
   Integer Bitwise FU's:            0
   Floating Point Float Add/Sub:    0
   Floating Point Double Add/Sub:   0
   Floating Point Float Mul/Div:    0
   Floating Point Double Mul/Div:   0
   0 Cycle Compare FU's:            0
   GEP Instruction FU's:            0
   Type Conversion FU's:            0
   Other:                           0

   ========= Pipeline Register Usage =============
   Total Number of Registers:       235
   Max Register Usage Per Cycle:    90
   Avg Register Usage Per Cycle:    33.924291
   Avg Register Size (Bytes):       5.841147

   ========= Memory Configuration =================
   Cache Bus Ports:                 0
   Shared Cache Size:               0kB
   Local Bus Ports:                 0
   Private SPM Size:                176kB
   Private Read Ports:              0
   Private Write Ports:             0
   Private Read Bus Width:          64
   Private Write Bus Width:         64
       Memory Reads:                0
       Memory Writes:               0
   ========= Power Analysis ======================
   FU Leakage Power:                1.178269 mW 
   FU Dynamic Power:                0.617392 mW 
   FU Total Power:                  1.795662 mW 

   Registers Leakage Power:          0.014185 mW 
   Registers Dynamic Power:          0.101057 mW 
       Register Reads (Bits):        348165
       Register Writes (Bits):       348168
   Registers Total Power:            0.115242 mW

   SPM Leakage Power:               0.089881 mW
   SPM Read Dynamic Power:          6.997296 mW
   SPM Write Dynamic Power:         2.062375 mW
   SPM Total Power:                 9.149552 mW

   SPM Energy Per Read Access:      0.161778 nJ
   SPM Energy Per Write Access:     0.205661 nJ

   Cache Leakage Power:             0.000000 mW
   Cache Read Dynamic Power:        0.000000 mW
   Cache Write Dynamic Power:       0.000000 mW
   Cache Total Power:               0.000000 mW

   Accelerator Power:               1.910904 mW
   Accelerator Power (SPM):         11.060456 mW
   Accelerator Power (Cache):       1.910904 mW

   ========= Area Analysis =======================
   FU Area:                         143348.187500 um^2 (0.143348 mm^2)
   Register Area:                   1152.968140 um^2 (0.001153 mm^2)
   SPM Area:                        3573.642862 um^2 (0.003574 mm^2)
   Cache Area:                      0.000000 um^2 (0.000000 mm^2)

   Accelerator Area:                144501.156250 um^2 (0.144501 mm^2)
   Accelerator Area (SPM):          148074.799112 um^2 (0.148075 mm^2)
   Accelerator Area (Cache):        144501.156250 um^2 (0.144501 mm^2)

   ========= SPM Resizing  =======================
   SPM Optimized Leakage Power:     0.003633 mW
   SPM Opt Area:                    364.024374 um^2

401389375: global: Timer #0 started at tick 401389375
401626875: global: Timer #2 started at tick 401626875
401661250: global: Timer #2 stopped at tick 401661250. Duration: 34375
401941250: global: DAG ID = 0
401953750: global: Node ID = 1
401966875: global: Node deadline difference = -13536
401979375: global: Predicted memory time / byte = 0 us/byte
401991875: global: Predicted memory time = 0 us
402004375: global: Predicted memory time / byte = 0 us/byte
402016875: global: Predicted memory time = 0 us
402029375: global: Predicted memory time / byte = 0 us/byte
402041875: global: Predicted memory time = 0 us
402054375: global: Predicted memory time / byte = 0 us/byte
402066875: global: Predicted memory time = 0 us
402079375: global: Predicted memory access size = 0
402091875: global: Predicted memory access size = 49152
402104375: global: Predicted memory access size = 0
402116875: global: Predicted memory access size = 0
402175000: global: Timer #6 started at tick 402175000
402735625: global: Timer #7 started at tick 402735625
403490875: system.acctest.convolution0_dma: SRC:0x000000002501c020, DST:0x0000000022000020, LEN:65536
403745625: global: Timer #7 stopped at tick 403745625. Duration: 1010000
403774375: global: Timer #6 stopped at tick 403774375. Duration: 1599375
403865625: global: Timer #0 stopped at tick 403865625. Duration: 2476250
403880000: global: Number of accelerators running = 2
413751875: system.acctest.convolution0_dma: Transfer completed in 10.261 us
413891875: global: Timer #0 started at tick 413891875
414050625: global: Timer #6 started at tick 414050625
414282500: global: Timer #7 started at tick 414282500
414928750: system.acctest.convolution0_dma: SRC:0x00000000820b33c0, DST:0x0000000022030020, LEN:100
415024750: system.acctest.convolution0_dma: Transfer completed in 0.096 us
415118125: global: Timer #7 stopped at tick 415118125. Duration: 835625
415151875: global: Timer #6 stopped at tick 415151875. Duration: 1101250
415248125: global: Timer #0 stopped at tick 415248125. Duration: 1356250
415262500: global: Number of accelerators running = 2
415379375: global: Timer #0 started at tick 415379375
415537500: global: Timer #6 started at tick 415537500
415589375: global: Timer #7 started at tick 415589375
416653750: global: Timer #7 stopped at tick 416653750. Duration: 1064375
416708750: global: Timer #6 stopped at tick 416708750. Duration: 1171250
416805000: global: Timer #0 stopped at tick 416805000. Duration: 1425625
416819375: global: Number of accelerators running = 2
********************************************************************************
system.acctest.isp0.compute
   ========= Performance Analysis =============
   Setup Time:                      0.548096seconds
   Simulation Time:                 1247.179375seconds
   System Clock:                    1.000000GHz
   Transistor Latency:              1ns
   Runtime:                         34883 cycles
   Runtime:                         34.883000 us
   Stalls:                          1 cycles
   Executed Nodes:                  34881 cycles

********************************************************************************
   ========= Performance Analysis =================
   Setup Time:                      548095863.000000ns
   Simulation Time:                 1247179375226.000000ns
   System Clock:                    1.000000GHz
   Transistor Latency:              0ns
   Runtime:                         34883 cycles
   Runtime:                         0.000003 seconds
   Stalls:                          1 cycles
       Load Only:                   0 cycles
       Store Only:                  1 cycles
       Compute Only:                0 cycles
       Compute & Store:             0 cycles
       Load & Store:                0 cycles
       Load & Compute:              0 cycles
       Load & Compute & Store:      0 cycles
   Executed Nodes:                  34881 cycles
       Load Only:                   0 cycles
       Store Only:                  1 cycles
       Compute Only:                3494 cycles
       Compute & Store:             18962 cycles
       Load & Store:                0 cycles
       Load & Compute:              2522 cycles
       Load & Compute & Store:      9902 cycles

   ========= Runtime FU's ========= (Max | Avg) ===
   Counter FU's:                      10 | 0.118072
   Integer Add/Sub FU's:              72 | 0.086623
   Integer Mul/Div FU's:              11 | 0.043887
   Integer Shifter FU's:              45 | 0.052311
   Integer Bitwise FU's:               4 | 0.059442
   Floating Point Float Add/Sub:      50 | 0.123186
   Floating Point Double Add/Sub:      0 | 0.000000
   Floating Point Float Mul/Div:      76 | 0.623817
   Floating Point Double Mul/Div:      0 | 0.000000
   0 Cycle Compare FU's:              90 | 0.626604
   GEP Instruction FU's:              33 | 0.117421
   Type Conversion FU's:             105 | 0.398648

   ========= Static FU's ==========================
   Counter FU's:                    0
   Integer Add/Sub FU's:            0
   Integer Mul/Div FU's:            0
   Integer Shifter FU's:            0
   Integer Bitwise FU's:            0
   Floating Point Float Add/Sub:    0
   Floating Point Double Add/Sub:   0
   Floating Point Float Mul/Div:    0
   Floating Point Double Mul/Div:   0
   0 Cycle Compare FU's:            0
   GEP Instruction FU's:            0
   Type Conversion FU's:            0
   Other:                           0

   ========= Pipeline Register Usage =============
   Total Number of Registers:       1620
   Max Register Usage Per Cycle:    152
   Avg Register Usage Per Cycle:    58.743027
   Avg Register Size (Bytes):       5.073357

   ========= Memory Configuration =================
   Cache Bus Ports:                 0
   Shared Cache Size:               0kB
   Local Bus Ports:                 0
   Private SPM Size:                112kB
   Private Read Ports:              0
   Private Write Ports:             0
   Private Read Bus Width:          64
   Private Write Bus Width:         64
       Memory Reads:                0
       Memory Writes:               0
   ========= Power Analysis ======================
   FU Leakage Power:                1.587585 mW 
   FU Dynamic Power:                9.627824 mW 
   FU Total Power:                  11.215409 mW 

   Registers Leakage Power:          0.021654 mW 
   Registers Dynamic Power:          3.086050 mW 
       Register Reads (Bits):        2049133
       Register Writes (Bits):       2049168
   Registers Total Power:            3.107704 mW

   SPM Leakage Power:               0.061081 mW
   SPM Read Dynamic Power:          15.102444 mW
   SPM Write Dynamic Power:         10.618341 mW
   SPM Total Power:                 25.781867 mW

   SPM Energy Per Read Access:      0.142059 nJ
   SPM Energy Per Write Access:     0.255513 nJ

   Cache Leakage Power:             0.000000 mW
   Cache Read Dynamic Power:        0.000000 mW
   Cache Write Dynamic Power:       0.000000 mW
   Cache Total Power:               0.000000 mW

   Accelerator Power:               14.323113 mW
   Accelerator Power (SPM):         40.104980 mW
   Accelerator Power (Cache):       14.323113 mW

   ========= Area Analysis =======================
   FU Area:                         170581.953125 um^2 (0.170582 mm^2)
   Register Area:                   1760.064941 um^2 (0.001760 mm^2)
   SPM Area:                        2165.394891 um^2 (0.002165 mm^2)
   Cache Area:                      0.000000 um^2 (0.000000 mm^2)

   Accelerator Area:                172342.015625 um^2 (0.172342 mm^2)
   Accelerator Area (SPM):          174507.410516 um^2 (0.174507 mm^2)
   Accelerator Area (Cache):        172342.015625 um^2 (0.172342 mm^2)

   ========= SPM Resizing  =======================
   SPM Optimized Leakage Power:     0.005964 mW
   SPM Opt Area:                    422.108128 um^2

421308125: global: Timer #0 started at tick 421308125
421474375: global: Timer #2 started at tick 421474375
421508750: global: Timer #2 stopped at tick 421508750. Duration: 34375
421726250: global: DAG ID = 1
421738750: global: Node ID = 0
421751875: global: Node deadline difference = -210
421764375: global: Predicted memory time / byte = 0 us/byte
421776875: global: Predicted memory time = 0 us
421789375: global: Predicted memory time / byte = 0 us/byte
421801875: global: Predicted memory time = 0 us
421814375: global: Predicted memory time / byte = 0 us/byte
421826875: global: Predicted memory time = 0 us
421839375: global: Predicted memory time / byte = 0 us/byte
421851875: global: Predicted memory time = 0 us
421864375: global: Predicted memory access size = 0
421876875: global: Predicted memory access size = 16900
421889375: global: Predicted memory access size = 0
421901875: global: Predicted memory access size = 0
421988125: global: Timer #6 started at tick 421988125
422100625: global: Timer #7 started at tick 422100625
422724500: system.acctest.grayscale0_dma: SRC:0x0000000027004224, DST:0x0000000025000020, LEN:49152
422856250: global: Timer #7 stopped at tick 422856250. Duration: 755625
422916875: global: Timer #6 stopped at tick 422916875. Duration: 928750
422974375: global: Timer #0 stopped at tick 422974375. Duration: 1666250
422988750: global: Number of accelerators running = 2
430425500: system.acctest.grayscale0_dma: Transfer completed in 7.701 us
430510000: global: Timer #0 started at tick 430510000
430669375: global: Timer #6 started at tick 430669375
430718125: global: Timer #7 started at tick 430718125
431109375: global: Timer #7 stopped at tick 431109375. Duration: 391250
431148750: global: Timer #6 stopped at tick 431148750. Duration: 479375
431244375: global: Timer #0 stopped at tick 431244375. Duration: 734375
431258750: global: Number of accelerators running = 2
********************************************************************************
system.acctest.grayscale0.compute
   ========= Performance Analysis =============
   Setup Time:                      0.009273seconds
   Simulation Time:                 260.384110seconds
   System Clock:                    1.000000GHz
   Transistor Latency:              1ns
   Runtime:                         10263 cycles
   Runtime:                         10.263000 us
   Stalls:                          1 cycles
   Executed Nodes:                  10261 cycles

********************************************************************************
   ========= Performance Analysis =================
   Setup Time:                      9273107.000000ns
   Simulation Time:                 260384110263.000031ns
   System Clock:                    1.000000GHz
   Transistor Latency:              0ns
   Runtime:                         10263 cycles
   Runtime:                         0.000001 seconds
   Stalls:                          1 cycles
       Load Only:                   0 cycles
       Store Only:                  1 cycles
       Compute Only:                0 cycles
       Compute & Store:             0 cycles
       Load & Store:                0 cycles
       Load & Compute:              0 cycles
       Load & Compute & Store:      0 cycles
   Executed Nodes:                  10261 cycles
       Load Only:                   0 cycles
       Store Only:                  1 cycles
       Compute Only:                88 cycles
       Compute & Store:             344 cycles
       Load & Store:                0 cycles
       Load & Compute:              1981 cycles
       Load & Compute & Store:      7847 cycles

   ========= Runtime FU's ========= (Max | Avg) ===
   Counter FU's:                      24 | 0.199556
   Integer Add/Sub FU's:               0 | 0.000000
   Integer Mul/Div FU's:               8 | 0.199552
   Integer Shifter FU's:               0 | 0.000000
   Integer Bitwise FU's:               1 | 0.000097
   Floating Point Float Add/Sub:      49 | 0.114264
   Floating Point Double Add/Sub:      0 | 0.000000
   Floating Point Float Mul/Div:      42 | 0.114129
   Floating Point Double Mul/Div:      0 | 0.000000
   0 Cycle Compare FU's:               9 | 0.066626
   GEP Instruction FU's:              36 | 0.177452
   Type Conversion FU's:              76 | 0.401969

   ========= Static FU's ==========================
   Counter FU's:                    0
   Integer Add/Sub FU's:            0
   Integer Mul/Div FU's:            0
   Integer Shifter FU's:            0
   Integer Bitwise FU's:            0
   Floating Point Float Add/Sub:    0
   Floating Point Double Add/Sub:   0
   Floating Point Float Mul/Div:    0
   Floating Point Double Mul/Div:   0
   0 Cycle Compare FU's:            0
   GEP Instruction FU's:            0
   Type Conversion FU's:            0
   Other:                           0

   ========= Pipeline Register Usage =============
   Total Number of Registers:       235
   Max Register Usage Per Cycle:    90
   Avg Register Usage Per Cycle:    33.924291
   Avg Register Size (Bytes):       5.841147

   ========= Memory Configuration =================
   Cache Bus Ports:                 0
   Shared Cache Size:               0kB
   Local Bus Ports:                 0
   Private SPM Size:                176kB
   Private Read Ports:              0
   Private Write Ports:             0
   Private Read Bus Width:          64
   Private Write Bus Width:         64
       Memory Reads:                0
       Memory Writes:               0
   ========= Power Analysis ======================
   FU Leakage Power:                1.178269 mW 
   FU Dynamic Power:                0.617392 mW 
   FU Total Power:                  1.795662 mW 

   Registers Leakage Power:          0.014185 mW 
   Registers Dynamic Power:          0.101057 mW 
       Register Reads (Bits):        348165
       Register Writes (Bits):       348168
   Registers Total Power:            0.115242 mW

   SPM Leakage Power:               0.089881 mW
   SPM Read Dynamic Power:          10.232207 mW
   SPM Write Dynamic Power:         5.980668 mW
   SPM Total Power:                 16.302756 mW

   SPM Energy Per Read Access:      0.161778 nJ
   SPM Energy Per Write Access:     0.205661 nJ

   Cache Leakage Power:             0.000000 mW
   Cache Read Dynamic Power:        0.000000 mW
   Cache Write Dynamic Power:       0.000000 mW
   Cache Total Power:               0.000000 mW

   Accelerator Power:               1.910904 mW
   Accelerator Power (SPM):         18.213660 mW
   Accelerator Power (Cache):       1.910904 mW

   ========= Area Analysis =======================
   FU Area:                         143348.187500 um^2 (0.143348 mm^2)
   Register Area:                   1152.968140 um^2 (0.001153 mm^2)
   SPM Area:                        3573.642862 um^2 (0.003574 mm^2)
   Cache Area:                      0.000000 um^2 (0.000000 mm^2)

   Accelerator Area:                144501.156250 um^2 (0.144501 mm^2)
   Accelerator Area (SPM):          148074.799112 um^2 (0.148075 mm^2)
   Accelerator Area (Cache):        144501.156250 um^2 (0.144501 mm^2)

   ========= SPM Resizing  =======================
   SPM Optimized Leakage Power:     0.003633 mW
   SPM Opt Area:                    364.024374 um^2

441330000: global: Timer #0 started at tick 441330000
441501250: global: Timer #2 started at tick 441501250
441535625: global: Timer #2 stopped at tick 441535625. Duration: 34375
441990625: global: Timer #7 started at tick 441990625
442633750: system.acctest.grayscale0_dma: SRC:0x000000002500c020, DST:0x0000000082198c80, LEN:65536
442786250: global: Timer #7 stopped at tick 442786250. Duration: 795625
443093750: global: Timer #0 stopped at tick 443093750. Duration: 1763750
443108125: global: Number of accelerators running = 2
448919750: system.acctest.grayscale0_dma: Transfer completed in 6.286 us
448995000: global: Timer #0 started at tick 448995000
449224375: global: DAG ID = 1
449242500: global: Node ID = 1
449309375: global: Node deadline difference = -219
449327500: global: Predicted memory time / byte = 0 us/byte
449345625: global: Predicted memory time = 0 us
449363750: global: Predicted memory time / byte = 0 us/byte
449381875: global: Predicted memory time = 0 us
449400000: global: Predicted memory time / byte = 0 us/byte
449418125: global: Predicted memory time = 0 us
449436250: global: Predicted memory time / byte = 0 us/byte
449454375: global: Predicted memory time = 0 us
449472500: global: Predicted memory access size = 0
449490625: global: Predicted memory access size = 49152
449508750: global: Predicted memory access size = 0
449526875: global: Predicted memory access size = 65536
449660625: global: Timer #0 stopped at tick 449660625. Duration: 665625
449675000: global: Number of accelerators running = 1
********************************************************************************
system.acctest.convolution0.compute
   ========= Performance Analysis =============
   Setup Time:                      0.715408seconds
   Simulation Time:                 816.397778seconds
   System Clock:                    1.000000GHz
   Transistor Latency:              1ns
   Runtime:                         1545612 cycles
   Runtime:                         1545.612000 us
   Stalls:                          3 cycles
   Executed Nodes:                  1545608 cycles

********************************************************************************
   ========= Performance Analysis =================
   Setup Time:                      715408211.000000ns
   Simulation Time:                 816397778498.000000ns
   System Clock:                    1.000000GHz
   Transistor Latency:              0ns
   Runtime:                         1545612 cycles
   Runtime:                         0.000155 seconds
   Stalls:                          3 cycles
       Load Only:                   0 cycles
       Store Only:                  1 cycles
       Compute Only:                2 cycles
       Compute & Store:             0 cycles
       Load & Store:                0 cycles
       Load & Compute:              0 cycles
       Load & Compute & Store:      0 cycles
   Executed Nodes:                  1545608 cycles
       Load Only:                   0 cycles
       Store Only:                  1 cycles
       Compute Only:                1142524 cycles
       Compute & Store:             1127 cycles
       Load & Store:                0 cycles
       Load & Compute:              386700 cycles
       Load & Compute & Store:      15256 cycles

   ========= Runtime FU's ========= (Max | Avg) ===
   Counter FU's:                       3 | 0.112298
   Integer Add/Sub FU's:               4 | 0.211563
   Integer Mul/Div FU's:               1 | 0.052505
   Integer Shifter FU's:              10 | 0.005268
   Integer Bitwise FU's:               2 | 0.184265
   Floating Point Float Add/Sub:       5 | 0.195738
   Floating Point Double Add/Sub:      0 | 0.000000
   Floating Point Float Mul/Div:       2 | 0.130033
   Floating Point Double Mul/Div:      0 | 0.000000
   0 Cycle Compare FU's:              40 | 0.144068
   GEP Instruction FU's:               2 | 0.265363
   Type Conversion FU's:              11 | 0.138856

   ========= Static FU's ==========================
   Counter FU's:                    0
   Integer Add/Sub FU's:            0
   Integer Mul/Div FU's:            0
   Integer Shifter FU's:            0
   Integer Bitwise FU's:            0
   Floating Point Float Add/Sub:    0
   Floating Point Double Add/Sub:   0
   Floating Point Float Mul/Div:    0
   Floating Point Double Mul/Div:   0
   0 Cycle Compare FU's:            0
   GEP Instruction FU's:            0
   Type Conversion FU's:            0
   Other:                           0

   ========= Pipeline Register Usage =============
   Total Number of Registers:       1702
   Max Register Usage Per Cycle:    20
   Avg Register Usage Per Cycle:    6.401172
   Avg Register Size (Bytes):       5.569403

   ========= Memory Configuration =================
   Cache Bus Ports:                 0
   Shared Cache Size:               0kB
   Local Bus Ports:                 0
   Private SPM Size:                192kB
   Private Read Ports:              0
   Private Write Ports:             0
   Private Read Bus Width:          64
   Private Write Bus Width:         64
       Memory Reads:                0
       Memory Writes:               0
   ========= Power Analysis ======================
   FU Leakage Power:                0.196912 mW 
   FU Dynamic Power:                2658.054443 mW 
   FU Total Power:                  2658.251465 mW 

   Registers Leakage Power:          0.002459 mW 
   Registers Dynamic Power:          75.875725 mW 
       Register Reads (Bits):        9893728
       Register Writes (Bits):       10131647
   Registers Total Power:            75.878181 mW

   SPM Leakage Power:               0.078311 mW
   SPM Read Dynamic Power:          11.170319 mW
   SPM Write Dynamic Power:         0.953321 mW
   SPM Total Power:                 12.201951 mW

   SPM Energy Per Read Access:      0.130935 nJ
   SPM Energy Per Write Access:     0.166637 nJ

   Cache Leakage Power:             0.000000 mW
   Cache Read Dynamic Power:        0.000000 mW
   Cache Write Dynamic Power:       0.000000 mW
   Cache Total Power:               0.000000 mW

   Accelerator Power:               2734.129639 mW
   Accelerator Power (SPM):         2746.331590 mW
   Accelerator Power (Cache):       2734.129639 mW

   ========= Area Analysis =======================
   FU Area:                         22931.867188 um^2 (0.022932 mm^2)
   Register Area:                   199.878082 um^2 (0.000200 mm^2)
   SPM Area:                        1748.188735 um^2 (0.001748 mm^2)
   Cache Area:                      0.000000 um^2 (0.000000 mm^2)

   Accelerator Area:                23131.746094 um^2 (0.023132 mm^2)
   Accelerator Area (SPM):          24879.934829 um^2 (0.024880 mm^2)
   Accelerator Area (Cache):        23131.746094 um^2 (0.023132 mm^2)

   ========= SPM Resizing  =======================
   SPM Optimized Leakage Power:     0.002053 mW
   SPM Opt Area:                    145.024971 um^2

1962226250: global: Timer #0 started at tick 1962226250
1962401875: global: Timer #2 started at tick 1962401875
1962858750: global: Timer #2 stopped at tick 1962858750. Duration: 456875
1962946875: global: Timer #2 started at tick 1962946875
1963011250: global: Timer #2 stopped at tick 1963011250. Duration: 64375
1963388750: global: Timer #7 started at tick 1963388750
1964040875: system.acctest.convolution0_dma: SRC:0x0000000022020020, DST:0x00000000820b3440, LEN:65536
1964188750: global: Timer #7 stopped at tick 1964188750. Duration: 800000
1964462500: global: Timer #0 stopped at tick 1964462500. Duration: 2236250
1964476875: global: Number of accelerators running = 1
1970411875: system.acctest.convolution0_dma: Transfer completed in 6.371 us
1970487500: global: Timer #0 started at tick 1970487500
1970656875: global: DAG ID = 0
1970669375: global: Node ID = 2
1970688750: global: Node deadline difference = -13543
1970701250: global: Predicted memory time / byte = 0 us/byte
1970713750: global: Predicted memory time = 0 us
1970726250: global: Predicted memory time / byte = 0 us/byte
1970738750: global: Predicted memory time = 0 us
1970751250: global: Predicted memory time / byte = 0 us/byte
1970763750: global: Predicted memory time = 0 us
1970776250: global: Predicted memory time / byte = 0 us/byte
1970788750: global: Predicted memory time = 0 us
1970801250: global: Predicted memory access size = 0
1970813750: global: Predicted memory access size = 65536
1970826250: global: Predicted memory access size = 0
1970838750: global: Predicted memory access size = 65536
1970911250: global: Timer #6 started at tick 1970911250
1971071250: global: Timer #7 started at tick 1971071250
1971701625: system.acctest.convolution0_dma: SRC:0x000000002500c020, DST:0x0000000022000020, LEN:65536
1971838125: global: Timer #7 stopped at tick 1971838125. Duration: 766875
1971860625: global: Timer #6 stopped at tick 1971860625. Duration: 949375
1971972500: global: Timer #0 stopped at tick 1971972500. Duration: 1485000
1971986875: global: Number of accelerators running = 1
1981962625: system.acctest.convolution0_dma: Transfer completed in 10.261 us
1982048125: global: Timer #0 started at tick 1982048125
1982200000: global: Timer #6 started at tick 1982200000
1982241875: global: Timer #7 started at tick 1982241875
1982881625: system.acctest.convolution0_dma: SRC:0x0000000082148200, DST:0x0000000022030020, LEN:100
1982977625: system.acctest.convolution0_dma: Transfer completed in 0.096 us
1983006250: global: Timer #7 stopped at tick 1983006250. Duration: 764375
1983031250: global: Timer #6 stopped at tick 1983031250. Duration: 831250
1983121875: global: Timer #0 stopped at tick 1983121875. Duration: 1073750
1983136250: global: Number of accelerators running = 1
1983245000: global: Timer #0 started at tick 1983245000
1983395000: global: Timer #6 started at tick 1983395000
1983445625: global: Timer #7 started at tick 1983445625
1984452500: global: Timer #7 stopped at tick 1984452500. Duration: 1006875
1984494375: global: Timer #6 stopped at tick 1984494375. Duration: 1099375
1984584375: global: Timer #0 stopped at tick 1984584375. Duration: 1339375
1984598750: global: Number of accelerators running = 1
********************************************************************************
system.acctest.convolution0.compute
   ========= Performance Analysis =============
   Setup Time:                      0.547353seconds
   Simulation Time:                 279.579410seconds
   System Clock:                    1.000000GHz
   Transistor Latency:              1ns
   Runtime:                         1545605 cycles
   Runtime:                         1545.605000 us
   Stalls:                          0 cycles
   Executed Nodes:                  1545604 cycles

********************************************************************************
   ========= Performance Analysis =================
   Setup Time:                      547353288.000000ns
   Simulation Time:                 279579410101.000000ns
   System Clock:                    1.000000GHz
   Transistor Latency:              0ns
   Runtime:                         1545605 cycles
   Runtime:                         0.000155 seconds
   Stalls:                          0 cycles
       Load Only:                   0 cycles
       Store Only:                  0 cycles
       Compute Only:                0 cycles
       Compute & Store:             0 cycles
       Load & Store:                0 cycles
       Load & Compute:              0 cycles
       Load & Compute & Store:      0 cycles
   Executed Nodes:                  1545604 cycles
       Load Only:                   0 cycles
       Store Only:                  0 cycles
       Compute Only:                1127274 cycles
       Compute & Store:             16374 cycles
       Load & Store:                0 cycles
       Load & Compute:              401946 cycles
       Load & Compute & Store:      10 cycles

   ========= Runtime FU's ========= (Max | Avg) ===
   Counter FU's:                       3 | 0.112298
   Integer Add/Sub FU's:               4 | 0.211564
   Integer Mul/Div FU's:               1 | 0.052505
   Integer Shifter FU's:              10 | 0.005268
   Integer Bitwise FU's:               2 | 0.184266
   Floating Point Float Add/Sub:       5 | 0.207991
   Floating Point Double Add/Sub:      0 | 0.000000
   Floating Point Float Mul/Div:       2 | 0.130117
   Floating Point Double Mul/Div:      0 | 0.000000
   0 Cycle Compare FU's:              40 | 0.145956
   GEP Instruction FU's:               4 | 0.132683
   Type Conversion FU's:               7 | 0.186618

   ========= Static FU's ==========================
   Counter FU's:                    0
   Integer Add/Sub FU's:            0
   Integer Mul/Div FU's:            0
   Integer Shifter FU's:            0
   Integer Bitwise FU's:            0
   Floating Point Float Add/Sub:    0
   Floating Point Double Add/Sub:   0
   Floating Point Float Mul/Div:    0
   Floating Point Double Mul/Div:   0
   0 Cycle Compare FU's:            0
   GEP Instruction FU's:            0
   Type Conversion FU's:            0
   Other:                           0

   ========= Pipeline Register Usage =============
   Total Number of Registers:       1702
   Max Register Usage Per Cycle:    20
   Avg Register Usage Per Cycle:    6.348199
   Avg Register Size (Bytes):       5.569148

   ========= Memory Configuration =================
   Cache Bus Ports:                 0
   Shared Cache Size:               0kB
   Local Bus Ports:                 0
   Private SPM Size:                192kB
   Private Read Ports:              0
   Private Write Ports:             0
   Private Read Bus Width:          64
   Private Write Bus Width:         64
       Memory Reads:                0
       Memory Writes:               0
   ========= Power Analysis ======================
   FU Leakage Power:                0.196912 mW 
   FU Dynamic Power:                2743.028564 mW 
   FU Total Power:                  2743.225586 mW 

   Registers Leakage Power:          0.002459 mW 
   Registers Dynamic Power:          75.251152 mW 
       Register Reads (Bits):        9811808
       Register Writes (Bits):       10049727
   Registers Total Power:            75.253609 mW

   SPM Leakage Power:               0.078311 mW
   SPM Read Dynamic Power:          16.237008 mW
   SPM Write Dynamic Power:         2.044305 mW
   SPM Total Power:                 18.359623 mW

   SPM Energy Per Read Access:      0.130935 nJ
   SPM Energy Per Write Access:     0.166637 nJ

   Cache Leakage Power:             0.000000 mW
   Cache Read Dynamic Power:        0.000000 mW
   Cache Write Dynamic Power:       0.000000 mW
   Cache Total Power:               0.000000 mW

   Accelerator Power:               2818.479248 mW
   Accelerator Power (SPM):         2836.838872 mW
   Accelerator Power (Cache):       2818.479248 mW

   ========= Area Analysis =======================
   FU Area:                         22931.867188 um^2 (0.022932 mm^2)
   Register Area:                   199.868912 um^2 (0.000200 mm^2)
   SPM Area:                        1748.188735 um^2 (0.001748 mm^2)
   Cache Area:                      0.000000 um^2 (0.000000 mm^2)

   Accelerator Area:                23131.736328 um^2 (0.023132 mm^2)
   Accelerator Area (SPM):          24879.925063 um^2 (0.024880 mm^2)
   Accelerator Area (Cache):        23131.736328 um^2 (0.023132 mm^2)

   ========= SPM Resizing  =======================
   SPM Optimized Leakage Power:     0.002053 mW
   SPM Opt Area:                    145.024971 um^2

3530022500: global: Timer #0 started at tick 3530022500
3530184375: global: Timer #2 started at tick 3530184375
3530218125: global: Timer #2 stopped at tick 3530218125. Duration: 33750
3530521250: global: DAG ID = 1
3530533750: global: Node ID = 2
3530546875: global: Node deadline difference = 1286
3530559375: global: Predicted memory time / byte = 0 us/byte
3530571875: global: Predicted memory time = 0 us
3530584375: global: Predicted memory time / byte = 0 us/byte
3530596875: global: Predicted memory time = 0 us
3530609375: global: Predicted memory time / byte = 0 us/byte
3530621875: global: Predicted memory time = 0 us
3530634375: global: Predicted memory time / byte = 0 us/byte
3530646875: global: Predicted memory time = 0 us
3530659375: global: Predicted memory access size = 0
3530671875: global: Predicted memory access size = 65536
3530684375: global: Predicted memory access size = 0
3530696875: global: Predicted memory access size = 0
3530754375: global: Timer #6 started at tick 3530754375
3530930625: global: Timer #7 started at tick 3530930625
3531576625: system.acctest.convolution0_dma: SRC:0x00000000820c3e80, DST:0x0000000022030020, LEN:36
3531645625: system.acctest.convolution0_dma: Transfer completed in 0.069 us
3531709375: global: Timer #7 stopped at tick 3531709375. Duration: 778750
3531730000: global: Timer #6 stopped at tick 3531730000. Duration: 975625
3531809375: global: Timer #6 started at tick 3531809375
3532298750: global: Timer #7 started at tick 3532298750
3533058750: system.acctest.elem_matrix0_dma: SRC:0x000000002500c020, DST:0x0000000024000020, LEN:65536
3533316875: global: Timer #7 stopped at tick 3533316875. Duration: 1018125
3533345625: global: Timer #6 stopped at tick 3533345625. Duration: 1536250
3533445000: global: Timer #0 stopped at tick 3533445000. Duration: 3422500
3533459375: global: Number of accelerators running = 2
3533568125: global: Timer #0 started at tick 3533568125
3533723125: global: Timer #6 started at tick 3533723125
3533765000: global: Timer #7 started at tick 3533765000
3534789375: global: Timer #7 stopped at tick 3534789375. Duration: 1024375
3534970625: global: Timer #6 stopped at tick 3534970625. Duration: 1247500
3535093750: global: Timer #0 stopped at tick 3535093750. Duration: 1525625
3535108125: global: Number of accelerators running = 2
3543329750: system.acctest.elem_matrix0_dma: Transfer completed in 10.271 us
3543422500: global: Timer #0 started at tick 3543422500
3543580625: global: Timer #6 started at tick 3543580625
3543920000: global: Timer #7 started at tick 3543920000
3544565875: system.acctest.elem_matrix0_dma: SRC:0x0000000082148740, DST:0x0000000024010020, LEN:65536
3544695000: global: Timer #7 stopped at tick 3544695000. Duration: 775000
3544771250: global: Timer #6 stopped at tick 3544771250. Duration: 1190625
3544861875: global: Timer #0 stopped at tick 3544861875. Duration: 1439375
3544876250: global: Number of accelerators running = 2
3556530875: system.acctest.elem_matrix0_dma: Transfer completed in 11.965 us
3556607500: global: Timer #0 started at tick 3556607500
3556764375: global: Timer #6 started at tick 3556764375
3556847500: global: Timer #7 started at tick 3556847500
3557871875: global: Timer #7 stopped at tick 3557871875. Duration: 1024375
3558145000: global: Timer #6 stopped at tick 3558145000. Duration: 1380625
3558245000: global: Timer #0 stopped at tick 3558245000. Duration: 1637500
3558259375: global: Number of accelerators running = 2
********************************************************************************
system.acctest.elem_matrix0.compute
   ========= Performance Analysis =============
   Setup Time:                      5.907924seconds
   Simulation Time:                 186.517915seconds
   System Clock:                    1.000000GHz
   Transistor Latency:              1ns
   Runtime:                         10944 cycles
   Runtime:                         10.944000 us
   Stalls:                          1 cycles
   Executed Nodes:                  10942 cycles

********************************************************************************
   ========= Performance Analysis =================
   Setup Time:                      5907924284.000000ns
   Simulation Time:                 186517914793.000000ns
   System Clock:                    1.000000GHz
   Transistor Latency:              0ns
   Runtime:                         10944 cycles
   Runtime:                         0.000001 seconds
   Stalls:                          1 cycles
       Load Only:                   0 cycles
       Store Only:                  1 cycles
       Compute Only:                0 cycles
       Compute & Store:             0 cycles
       Load & Store:                0 cycles
       Load & Compute:              0 cycles
       Load & Compute & Store:      0 cycles
   Executed Nodes:                  10942 cycles
       Load Only:                   0 cycles
       Store Only:                  16 cycles
       Compute Only:                1 cycles
       Compute & Store:             21 cycles
       Load & Store:                0 cycles
       Load & Compute:              18 cycles
       Load & Compute & Store:      10886 cycles

   ========= Runtime FU's ========= (Max | Avg) ===
   Counter FU's:                      32 | 0.046786
   Integer Add/Sub FU's:               0 | 0.000000
   Integer Mul/Div FU's:               0 | 0.000000
   Integer Shifter FU's:               0 | 0.000000
   Integer Bitwise FU's:               1 | 0.000091
   Floating Point Float Add/Sub:       0 | 0.000000
   Floating Point Double Add/Sub:      0 | 0.000000
   Floating Point Float Mul/Div:       0 | 0.000000
   Floating Point Double Mul/Div:      0 | 0.000000
   0 Cycle Compare FU's:             102 | 0.047066
   GEP Instruction FU's:              96 | 0.046784
   Type Conversion FU's:               7 | 0.006775

   ========= Static FU's ==========================
   Counter FU's:                    0
   Integer Add/Sub FU's:            0
   Integer Mul/Div FU's:            0
   Integer Shifter FU's:            0
   Integer Bitwise FU's:            0
   Floating Point Float Add/Sub:    0
   Floating Point Double Add/Sub:   0
   Floating Point Float Mul/Div:    0
   Floating Point Double Mul/Div:   0
   0 Cycle Compare FU's:            0
   GEP Instruction FU's:            0
   Type Conversion FU's:            0
   Other:                           0

   ========= Pipeline Register Usage =============
   Total Number of Registers:       5641
   Max Register Usage Per Cycle:    137
   Avg Register Usage Per Cycle:    12.117690
   Avg Register Size (Bytes):       5.980606

   ========= Memory Configuration =================
   Cache Bus Ports:                 0
   Shared Cache Size:               0kB
   Local Bus Ports:                 0
   Private SPM Size:                256kB
   Private Read Ports:              0
   Private Write Ports:             0
   Private Read Bus Width:          64
   Private Write Bus Width:         64
       Memory Reads:                0
       Memory Writes:               0
   ========= Power Analysis ======================
   FU Leakage Power:                0.000611 mW 
   FU Dynamic Power:                0.036818 mW 
   FU Total Power:                  0.037429 mW 

   Registers Leakage Power:          0.005281 mW 
   Registers Dynamic Power:          0.015342 mW 
       Register Reads (Bits):        132616
       Register Writes (Bits):       133658
   Registers Total Power:            0.020624 mW

   SPM Leakage Power:               0.104100 mW
   SPM Read Dynamic Power:          1.997266 mW
   SPM Write Dynamic Power:         0.953321 mW
   SPM Total Power:                 3.054688 mW

   SPM Energy Per Read Access:      0.170493 nJ
   SPM Energy Per Write Access:     0.218190 nJ

   Cache Leakage Power:             0.000000 mW
   Cache Read Dynamic Power:        0.000000 mW
   Cache Write Dynamic Power:       0.000000 mW
   Cache Total Power:               0.000000 mW

   Accelerator Power:               0.058053 mW
   Accelerator Power (SPM):         3.112741 mW
   Accelerator Power (Cache):       0.058053 mW

   ========= Area Analysis =======================
   FU Area:                         50.369961 um^2 (0.000050 mm^2)
   Register Area:                   429.271088 um^2 (0.000429 mm^2)
   SPM Area:                        2177.365505 um^2 (0.002177 mm^2)
   Cache Area:                      0.000000 um^2 (0.000000 mm^2)

   Accelerator Area:                479.641052 um^2 (0.000480 mm^2)
   Accelerator Area (SPM):          2657.006557 um^2 (0.002657 mm^2)
   Accelerator Area (Cache):        479.641052 um^2 (0.000480 mm^2)

   ========= SPM Resizing  =======================
   SPM Optimized Leakage Power:     0.004248 mW
   SPM Opt Area:                    178.524902 um^2

3568765000: global: Timer #0 started at tick 3568765000
3569001875: global: Timer #2 started at tick 3569001875
3569063750: global: Timer #2 stopped at tick 3569063750. Duration: 61875
3569205000: global: Timer #7 started at tick 3569205000
3569850875: system.acctest.elem_matrix0_dma: SRC:0x0000000024030020, DST:0x0000000082158740, LEN:65536
3569998750: global: Timer #7 stopped at tick 3569998750. Duration: 793750
3570235000: global: Timer #0 stopped at tick 3570235000. Duration: 1470000
3570249375: global: Number of accelerators running = 2
3576189875: system.acctest.elem_matrix0_dma: Transfer completed in 6.339 us
3576265000: global: Timer #0 started at tick 3576265000
3576435000: global: DAG ID = 1
3576447500: global: Node ID = 3
3576481875: global: Node deadline difference = 1275
3576494375: global: Predicted memory time / byte = 0 us/byte
3576506875: global: Predicted memory time = 0 us
3576519375: global: Predicted memory time / byte = 0 us/byte
3576531875: global: Predicted memory time = 0 us
3576544375: global: Predicted memory time / byte = 0 us/byte
3576556875: global: Predicted memory time = 0 us
3576569375: global: Predicted memory time / byte = 0 us/byte
3576581875: global: Predicted memory time = 0 us
3576594375: global: Predicted memory access size = 0
3576606875: global: Predicted memory access size = 131072
3576619375: global: Predicted memory access size = 0
3576631875: global: Predicted memory access size = 65536
3576736875: global: Timer #0 stopped at tick 3576736875. Duration: 471875
3576751250: global: Number of accelerators running = 1
********************************************************************************
system.acctest.convolution0.compute
   ========= Performance Analysis =============
   Setup Time:                      0.915629seconds
   Simulation Time:                 312.272088seconds
   System Clock:                    1.000000GHz
   Transistor Latency:              1ns
   Runtime:                         637329 cycles
   Runtime:                         637.329000 us
   Stalls:                          7 cycles
   Executed Nodes:                  637321 cycles

********************************************************************************
   ========= Performance Analysis =================
   Setup Time:                      915628557.000000ns
   Simulation Time:                 312272087701.000000ns
   System Clock:                    1.000000GHz
   Transistor Latency:              0ns
   Runtime:                         637329 cycles
   Runtime:                         0.000064 seconds
   Stalls:                          7 cycles
       Load Only:                   0 cycles
       Store Only:                  1 cycles
       Compute Only:                6 cycles
       Compute & Store:             0 cycles
       Load & Store:                0 cycles
       Load & Compute:              0 cycles
       Load & Compute & Store:      0 cycles
   Executed Nodes:                  637321 cycles
       Load Only:                   0 cycles
       Store Only:                  1 cycles
       Compute Only:                475397 cycles
       Compute & Store:             15999 cycles
       Load & Store:                0 cycles
       Load & Compute:              145540 cycles
       Load & Compute & Store:      384 cycles

   ========= Runtime FU's ========= (Max | Avg) ===
   Counter FU's:                       3 | 0.119701
   Integer Add/Sub FU's:               4 | 0.197730
   Integer Mul/Div FU's:               1 | 0.076720
   Integer Shifter FU's:              10 | 0.007714
   Integer Bitwise FU's:               2 | 0.192204
   Floating Point Float Add/Sub:       4 | 0.202424
   Floating Point Double Add/Sub:      0 | 0.000000
   Floating Point Float Mul/Div:       2 | 0.114482
   Floating Point Double Mul/Div:      0 | 0.000000
   0 Cycle Compare FU's:              40 | 0.135811
   GEP Instruction FU's:               2 | 0.241815
   Type Conversion FU's:               9 | 0.181785

   ========= Static FU's ==========================
   Counter FU's:                    0
   Integer Add/Sub FU's:            0
   Integer Mul/Div FU's:            0
   Integer Shifter FU's:            0
   Integer Bitwise FU's:            0
   Floating Point Float Add/Sub:    0
   Floating Point Double Add/Sub:   0
   Floating Point Float Mul/Div:    0
   Floating Point Double Mul/Div:   0
   0 Cycle Compare FU's:            0
   GEP Instruction FU's:            0
   Type Conversion FU's:            0
   Other:                           0

   ========= Pipeline Register Usage =============
   Total Number of Registers:       1702
   Max Register Usage Per Cycle:    17
   Avg Register Usage Per Cycle:    6.079275
   Avg Register Size (Bytes):       5.490795

   ========= Memory Configuration =================
   Cache Bus Ports:                 0
   Shared Cache Size:               0kB
   Local Bus Ports:                 0
   Private SPM Size:                192kB
   Private Read Ports:              0
   Private Write Ports:             0
   Private Read Bus Width:          64
   Private Write Bus Width:         64
       Memory Reads:                0
       Memory Writes:               0
   ========= Power Analysis ======================
   FU Leakage Power:                0.181658 mW 
   FU Dynamic Power:                392.771942 mW 
   FU Total Power:                  392.953613 mW 

   Registers Leakage Power:          0.002424 mW 
   Registers Dynamic Power:          12.192513 mW 
       Register Reads (Bits):        3874498
       Register Writes (Bits):       4041055
   Registers Total Power:            12.194937 mW

   SPM Leakage Power:               0.078311 mW
   SPM Read Dynamic Power:          17.543744 mW
   SPM Write Dynamic Power:         2.457440 mW
   SPM Total Power:                 20.079495 mW

   SPM Energy Per Read Access:      0.130935 nJ
   SPM Energy Per Write Access:     0.166637 nJ

   Cache Leakage Power:             0.000000 mW
   Cache Read Dynamic Power:        0.000000 mW
   Cache Write Dynamic Power:       0.000000 mW
   Cache Total Power:               0.000000 mW

   Accelerator Power:               405.148560 mW
   Accelerator Power (SPM):         425.228055 mW
   Accelerator Power (Cache):       405.148560 mW

   ========= Area Analysis =======================
   FU Area:                         20868.273438 um^2 (0.020868 mm^2)
   Register Area:                   197.056931 um^2 (0.000197 mm^2)
   SPM Area:                        1748.188735 um^2 (0.001748 mm^2)
   Cache Area:                      0.000000 um^2 (0.000000 mm^2)

   Accelerator Area:                21065.330078 um^2 (0.021065 mm^2)
   Accelerator Area (SPM):          22813.518813 um^2 (0.022814 mm^2)
   Accelerator Area (Cache):        21065.330078 um^2 (0.021065 mm^2)

   ========= SPM Resizing  =======================
   SPM Optimized Leakage Power:     0.002053 mW
   SPM Opt Area:                    145.024971 um^2

4172088750: global: Timer #0 started at tick 4172088750
4172253125: global: Timer #2 started at tick 4172253125
4172286875: global: Timer #2 stopped at tick 4172286875. Duration: 33750
4172608125: global: Timer #7 started at tick 4172608125
4173250875: system.acctest.convolution0_dma: SRC:0x0000000022010020, DST:0x00000000820c3f00, LEN:65536
4173378750: global: Timer #7 stopped at tick 4173378750. Duration: 770625
4173592500: global: Timer #6 started at tick 4173592500
4173881250: global: Timer #7 started at tick 4173881250
4174546000: system.acctest.elem_matrix0_dma: SRC:0x0000000022010020, DST:0x0000000024000020, LEN:65536
4174681250: global: Timer #7 stopped at tick 4174681250. Duration: 800000
4174703750: global: Timer #6 stopped at tick 4174703750. Duration: 1111250
4174793125: global: Timer #0 stopped at tick 4174793125. Duration: 2704375
4174807500: global: Number of accelerators running = 2
4185367875: system.acctest.convolution0_dma: Transfer completed in 12.117 us
4185444375: global: Timer #0 started at tick 4185444375
4185618125: global: DAG ID = 0
4185630625: global: Node ID = 3
4185657500: global: Node deadline difference = -11997
4185670000: global: Predicted memory time / byte = 0 us/byte
4185682500: global: Predicted memory time = 0 us
4185695000: global: Predicted memory time / byte = 0 us/byte
4185707500: global: Predicted memory time = 0 us
4185720000: global: Predicted memory time / byte = 0 us/byte
4185732500: global: Predicted memory time = 0 us
4185745000: global: Predicted memory time / byte = 0 us/byte
4185757500: global: Predicted memory time = 0 us
4185770000: global: Predicted memory access size = 0
4185782500: global: Predicted memory access size = 0
4185795000: global: Predicted memory access size = 0
4185807500: global: Predicted memory access size = 65536
4185873125: global: Timer #6 started at tick 4185873125
4185918125: global: Timer #6 stopped at tick 4185918125. Duration: 45000
4186027500: global: Timer #0 stopped at tick 4186027500. Duration: 583125
4186041875: global: Number of accelerators running = 1
4188157000: system.acctest.elem_matrix0_dma: Transfer completed in 13.611 us
4188241875: global: Timer #0 started at tick 4188241875
4188399375: global: Timer #6 started at tick 4188399375
4188469375: global: Timer #7 started at tick 4188469375
4189498125: global: Timer #7 stopped at tick 4189498125. Duration: 1028750
4189597500: global: Timer #6 stopped at tick 4189597500. Duration: 1198125
4189644375: global: Timer #6 started at tick 4189644375
4189728125: global: Timer #7 started at tick 4189728125
4190369500: system.acctest.convolution0_dma: SRC:0x00000000820c3ec0, DST:0x0000000022030020, LEN:36
4190456500: system.acctest.convolution0_dma: Transfer completed in 0.087 us
4190493750: global: Timer #7 stopped at tick 4190493750. Duration: 765625
4190509375: global: Timer #6 stopped at tick 4190509375. Duration: 865000
4190628125: global: Timer #0 stopped at tick 4190628125. Duration: 2386250
4190642500: global: Number of accelerators running = 2
4190751250: global: Timer #0 started at tick 4190751250
4190903125: global: Timer #6 started at tick 4190903125
4190945000: global: Timer #7 started at tick 4190945000
4191942500: global: Timer #7 stopped at tick 4191942500. Duration: 997500
4191986875: global: Timer #6 stopped at tick 4191986875. Duration: 1083750
4192080000: global: Timer #0 stopped at tick 4192080000. Duration: 1328750
4192094375: global: Number of accelerators running = 2
********************************************************************************
system.acctest.elem_matrix0.compute
   ========= Performance Analysis =============
   Setup Time:                      6.404354seconds
   Simulation Time:                 143.092181seconds
   System Clock:                    1.000000GHz
   Transistor Latency:              1ns
   Runtime:                         8199 cycles
   Runtime:                         8.199000 us
   Stalls:                          2729 cycles
   Executed Nodes:                  5469 cycles

********************************************************************************
   ========= Performance Analysis =================
   Setup Time:                      6404353521.000000ns
   Simulation Time:                 143092181220.000000ns
   System Clock:                    1.000000GHz
   Transistor Latency:              0ns
   Runtime:                         8199 cycles
   Runtime:                         0.000001 seconds
   Stalls:                          2729 cycles
       Load Only:                   0 cycles
       Store Only:                  2729 cycles
       Compute Only:                0 cycles
       Compute & Store:             0 cycles
       Load & Store:                0 cycles
       Load & Compute:              0 cycles
       Load & Compute & Store:      0 cycles
   Executed Nodes:                  5469 cycles
       Load Only:                   0 cycles
       Store Only:                  4 cycles
       Compute Only:                1 cycles
       Compute & Store:             11 cycles
       Load & Store:                0 cycles
       Load & Compute:              6 cycles
       Load & Compute & Store:      5447 cycles

   ========= Runtime FU's ========= (Max | Avg) ===
   Counter FU's:                      32 | 0.062450
   Integer Add/Sub FU's:               0 | 0.000000
   Integer Mul/Div FU's:               0 | 0.000000
   Integer Shifter FU's:               0 | 0.000000
   Integer Bitwise FU's:               1 | 0.000122
   Floating Point Float Add/Sub:       0 | 0.000000
   Floating Point Double Add/Sub:      0 | 0.000000
   Floating Point Float Mul/Div:      35 | 0.057652
   Floating Point Double Mul/Div:      0 | 0.000000
   0 Cycle Compare FU's:              15 | 0.025182
   GEP Instruction FU's:              64 | 0.062447
   Type Conversion FU's:               7 | 0.009043

   ========= Static FU's ==========================
   Counter FU's:                    0
   Integer Add/Sub FU's:            0
   Integer Mul/Div FU's:            0
   Integer Shifter FU's:            0
   Integer Bitwise FU's:            0
   Floating Point Float Add/Sub:    0
   Floating Point Double Add/Sub:   0
   Floating Point Float Mul/Div:    0
   Floating Point Double Mul/Div:   0
   0 Cycle Compare FU's:            0
   GEP Instruction FU's:            0
   Type Conversion FU's:            0
   Other:                           0

   ========= Pipeline Register Usage =============
   Total Number of Registers:       5641
   Max Register Usage Per Cycle:    104
   Avg Register Usage Per Cycle:    10.117331
   Avg Register Size (Bytes):       6.376398

   ========= Memory Configuration =================
   Cache Bus Ports:                 0
   Shared Cache Size:               0kB
   Local Bus Ports:                 0
   Private SPM Size:                256kB
   Private Read Ports:              0
   Private Write Ports:             0
   Private Read Bus Width:          64
   Private Write Bus Width:         64
       Memory Reads:                0
       Memory Writes:               0
   ========= Power Analysis ======================
   FU Leakage Power:                0.045377 mW 
   FU Dynamic Power:                0.051978 mW 
   FU Total Power:                  0.097355 mW 

   Registers Leakage Power:          0.004692 mW 
   Registers Dynamic Power:          0.006422 mW 
       Register Reads (Bits):        82952
       Register Writes (Bits):       84505
   Registers Total Power:            0.011115 mW

   SPM Leakage Power:               0.104100 mW
   SPM Read Dynamic Power:          2.386224 mW
   SPM Write Dynamic Power:         2.044305 mW
   SPM Total Power:                 4.534629 mW

   SPM Energy Per Read Access:      0.170493 nJ
   SPM Energy Per Write Access:     0.218190 nJ

   Cache Leakage Power:             0.000000 mW
   Cache Read Dynamic Power:        0.000000 mW
   Cache Write Dynamic Power:       0.000000 mW
   Cache Total Power:               0.000000 mW

   Accelerator Power:               0.108470 mW
   Accelerator Power (SPM):         4.643099 mW
   Accelerator Power (Cache):       0.108470 mW

   ========= Area Analysis =======================
   FU Area:                         5472.068359 um^2 (0.005472 mm^2)
   Register Area:                   381.399994 um^2 (0.000381 mm^2)
   SPM Area:                        2177.365505 um^2 (0.002177 mm^2)
   Cache Area:                      0.000000 um^2 (0.000000 mm^2)

   Accelerator Area:                5853.468262 um^2 (0.005853 mm^2)
   Accelerator Area (SPM):          8030.833767 um^2 (0.008031 mm^2)
   Accelerator Area (Cache):        5853.468262 um^2 (0.005853 mm^2)

   ========= SPM Resizing  =======================
   SPM Optimized Leakage Power:     0.003237 mW
   SPM Opt Area:                    162.973445 um^2

4197655000: global: Timer #0 started at tick 4197655000
4198052500: global: Timer #7 started at tick 4198052500
4198692375: system.acctest.elem_matrix0_dma: SRC:0x0000000024020020, DST:0x00000000820e3f00, LEN:65536
4198829375: global: Timer #7 stopped at tick 4198829375. Duration: 776875
4199057500: global: Timer #0 stopped at tick 4199057500. Duration: 1402500
4199071875: global: Number of accelerators running = 2
4205026375: system.acctest.elem_matrix0_dma: Transfer completed in 6.334 us
4205102500: global: Timer #0 started at tick 4205102500
4205271875: global: DAG ID = 0
4205284375: global: Node ID = 5
4205313750: global: Node deadline difference = -12016
4205326250: global: Predicted memory time / byte = 0 us/byte
4205338750: global: Predicted memory time = 0 us
4205351250: global: Predicted memory time / byte = 0 us/byte
4205363750: global: Predicted memory time = 0 us
4205376250: global: Predicted memory time / byte = 0 us/byte
4205388750: global: Predicted memory time = 0 us
4205401250: global: Predicted memory time / byte = 0 us/byte
4205413750: global: Predicted memory time = 0 us
4205426250: global: Predicted memory access size = 0
4205438750: global: Predicted memory access size = 65536
4205451250: global: Predicted memory access size = 0
4205463750: global: Predicted memory access size = 65536
4205565625: global: Timer #0 stopped at tick 4205565625. Duration: 463125
4205580000: global: Number of accelerators running = 1
********************************************************************************
system.acctest.convolution0.compute
   ========= Performance Analysis =============
   Setup Time:                      0.564401seconds
   Simulation Time:                 193.600859seconds
   System Clock:                    1.000000GHz
   Transistor Latency:              1ns
   Runtime:                         637329 cycles
   Runtime:                         637.329000 us
   Stalls:                          7 cycles
   Executed Nodes:                  637321 cycles

********************************************************************************
   ========= Performance Analysis =================
   Setup Time:                      564400624.000000ns
   Simulation Time:                 193600859476.000000ns
   System Clock:                    1.000000GHz
   Transistor Latency:              0ns
   Runtime:                         637329 cycles
   Runtime:                         0.000064 seconds
   Stalls:                          7 cycles
       Load Only:                   0 cycles
       Store Only:                  1 cycles
       Compute Only:                6 cycles
       Compute & Store:             0 cycles
       Load & Store:                0 cycles
       Load & Compute:              0 cycles
       Load & Compute & Store:      0 cycles
   Executed Nodes:                  637321 cycles
       Load Only:                   0 cycles
       Store Only:                  1 cycles
       Compute Only:                475397 cycles
       Compute & Store:             15999 cycles
       Load & Store:                0 cycles
       Load & Compute:              145540 cycles
       Load & Compute & Store:      384 cycles

   ========= Runtime FU's ========= (Max | Avg) ===
   Counter FU's:                       3 | 0.119701
   Integer Add/Sub FU's:               4 | 0.197730
   Integer Mul/Div FU's:               1 | 0.076720
   Integer Shifter FU's:              10 | 0.007714
   Integer Bitwise FU's:               2 | 0.192204
   Floating Point Float Add/Sub:       4 | 0.202424
   Floating Point Double Add/Sub:      0 | 0.000000
   Floating Point Float Mul/Div:       2 | 0.114482
   Floating Point Double Mul/Div:      0 | 0.000000
   0 Cycle Compare FU's:              40 | 0.135811
   GEP Instruction FU's:               2 | 0.241815
   Type Conversion FU's:               9 | 0.181785

   ========= Static FU's ==========================
   Counter FU's:                    0
   Integer Add/Sub FU's:            0
   Integer Mul/Div FU's:            0
   Integer Shifter FU's:            0
   Integer Bitwise FU's:            0
   Floating Point Float Add/Sub:    0
   Floating Point Double Add/Sub:   0
   Floating Point Float Mul/Div:    0
   Floating Point Double Mul/Div:   0
   0 Cycle Compare FU's:            0
   GEP Instruction FU's:            0
   Type Conversion FU's:            0
   Other:                           0

   ========= Pipeline Register Usage =============
   Total Number of Registers:       1702
   Max Register Usage Per Cycle:    17
   Avg Register Usage Per Cycle:    6.079275
   Avg Register Size (Bytes):       5.490795

   ========= Memory Configuration =================
   Cache Bus Ports:                 0
   Shared Cache Size:               0kB
   Local Bus Ports:                 0
   Private SPM Size:                192kB
   Private Read Ports:              0
   Private Write Ports:             0
   Private Read Bus Width:          64
   Private Write Bus Width:         64
       Memory Reads:                0
       Memory Writes:               0
   ========= Power Analysis ======================
   FU Leakage Power:                0.181658 mW 
   FU Dynamic Power:                392.771942 mW 
   FU Total Power:                  392.953613 mW 

   Registers Leakage Power:          0.002424 mW 
   Registers Dynamic Power:          12.192513 mW 
[...]
   Private Read Ports:              0
   Private Write Ports:             0
   Private Read Bus Width:          64
   Private Write Bus Width:         64
       Memory Reads:                0
       Memory Writes:               0
   ========= Power Analysis ======================
   FU Leakage Power:                0.000611 mW 
   FU Dynamic Power:                0.036818 mW 
   FU Total Power:                  0.037429 mW 

   Registers Leakage Power:          0.005281 mW 
   Registers Dynamic Power:          0.015342 mW 
       Register Reads (Bits):        132616
       Register Writes (Bits):       133658
   Registers Total Power:            0.020624 mW

   SPM Leakage Power:               0.104100 mW
   SPM Read Dynamic Power:          8.683697 mW
   SPM Write Dynamic Power:         5.971151 mW
   SPM Total Power:                 14.758949 mW

   SPM Energy Per Read Access:      0.170493 nJ
   SPM Energy Per Write Access:     0.218190 nJ

   Cache Leakage Power:             0.000000 mW
   Cache Read Dynamic Power:        0.000000 mW
   Cache Write Dynamic Power:       0.000000 mW
   Cache Total Power:               0.000000 mW

   Accelerator Power:               0.058053 mW
   Accelerator Power (SPM):         14.817002 mW
   Accelerator Power (Cache):       0.058053 mW

   ========= Area Analysis =======================
   FU Area:                         50.369961 um^2 (0.000050 mm^2)
   Register Area:                   429.271088 um^2 (0.000429 mm^2)
   SPM Area:                        2177.365505 um^2 (0.002177 mm^2)
   Cache Area:                      0.000000 um^2 (0.000000 mm^2)

   Accelerator Area:                479.641052 um^2 (0.000480 mm^2)
   Accelerator Area (SPM):          2657.006557 um^2 (0.002657 mm^2)
   Accelerator Area (Cache):        479.641052 um^2 (0.000480 mm^2)

   ========= SPM Resizing  =======================
   SPM Optimized Leakage Power:     0.004248 mW
   SPM Opt Area:                    178.524902 um^2

17630186250: global: Timer #0 started at tick 17630186250
17630418125: global: Timer #2 started at tick 17630418125
17630448125: global: Timer #2 stopped at tick 17630448125. Duration: 30000
17630675000: global: DAG ID = 1
17630687500: global: Node ID = 19
17630700625: global: Node deadline difference = 2261
17630713125: global: Predicted memory time / byte = 0 us/byte
17630725625: global: Predicted memory time = 0 us
17630738125: global: Predicted memory time / byte = 0 us/byte
17630750625: global: Predicted memory time = 0 us
17630763125: global: Predicted memory time / byte = 0 us/byte
17630775625: global: Predicted memory time = 0 us
17630788125: global: Predicted memory time / byte = 0 us/byte
17630800625: global: Predicted memory time = 0 us
17630813125: global: Predicted memory access size = 0
17630825625: global: Predicted memory access size = 131072
17630838125: global: Predicted memory access size = 0
17630850625: global: Predicted memory access size = 0
17630908750: global: Timer #6 started at tick 17630908750
17630985625: global: Timer #7 started at tick 17630985625
17631613750: system.acctest.convolution0_dma: SRC:0x0000000024020020, DST:0x0000000022000020, LEN:65536
17631742500: global: Timer #7 stopped at tick 17631742500. Duration: 756875
17631757500: global: Timer #6 stopped at tick 17631757500. Duration: 848750
17631848750: global: Timer #0 stopped at tick 17631848750. Duration: 1662500
17631863125: global: Number of accelerators running = 1
17641874750: system.acctest.convolution0_dma: Transfer completed in 10.261 us
17641960000: global: Timer #0 started at tick 17641960000
17642106875: global: Timer #6 started at tick 17642106875
17642148750: global: Timer #7 started at tick 17642148750
17642783750: system.acctest.convolution0_dma: SRC:0x0000000082148280, DST:0x0000000022030020, LEN:100
17642879750: system.acctest.convolution0_dma: Transfer completed in 0.096 us
17642908125: global: Timer #7 stopped at tick 17642908125. Duration: 759375
17642928125: global: Timer #6 stopped at tick 17642928125. Duration: 821250
17643021875: global: Timer #0 stopped at tick 17643021875. Duration: 1061875
17643036250: global: Number of accelerators running = 1
17643145000: global: Timer #0 started at tick 17643145000
17643290000: global: Timer #6 started at tick 17643290000
17643331875: global: Timer #7 started at tick 17643331875
17644327500: global: Timer #7 stopped at tick 17644327500. Duration: 995625
17644363750: global: Timer #6 stopped at tick 17644363750. Duration: 1073750
17644445625: global: Timer #0 stopped at tick 17644445625. Duration: 1300625
17644460000: global: Number of accelerators running = 1
********************************************************************************
system.acctest.convolution0.compute
   ========= Performance Analysis =============
   Setup Time:                      0.603306seconds
   Simulation Time:                 295.958732seconds
   System Clock:                    1.000000GHz
   Transistor Latency:              1ns
   Runtime:                         1545605 cycles
   Runtime:                         1545.605000 us
   Stalls:                          0 cycles
   Executed Nodes:                  1545604 cycles

********************************************************************************
   ========= Performance Analysis =================
   Setup Time:                      603305869.000000ns
   Simulation Time:                 295958731741.000000ns
   System Clock:                    1.000000GHz
   Transistor Latency:              0ns
   Runtime:                         1545605 cycles
   Runtime:                         0.000155 seconds
   Stalls:                          0 cycles
       Load Only:                   0 cycles
       Store Only:                  0 cycles
       Compute Only:                0 cycles
       Compute & Store:             0 cycles
       Load & Store:                0 cycles
       Load & Compute:              0 cycles
       Load & Compute & Store:      0 cycles
   Executed Nodes:                  1545604 cycles
       Load Only:                   0 cycles
       Store Only:                  0 cycles
       Compute Only:                1127274 cycles
       Compute & Store:             16374 cycles
       Load & Store:                0 cycles
       Load & Compute:              401946 cycles
       Load & Compute & Store:      10 cycles

   ========= Runtime FU's ========= (Max | Avg) ===
   Counter FU's:                       3 | 0.112298
   Integer Add/Sub FU's:               4 | 0.211564
   Integer Mul/Div FU's:               1 | 0.052505
   Integer Shifter FU's:              10 | 0.005268
   Integer Bitwise FU's:               2 | 0.184266
   Floating Point Float Add/Sub:       5 | 0.207991
   Floating Point Double Add/Sub:      0 | 0.000000
   Floating Point Float Mul/Div:       2 | 0.130117
   Floating Point Double Mul/Div:      0 | 0.000000
   0 Cycle Compare FU's:              40 | 0.145956
   GEP Instruction FU's:               4 | 0.132683
   Type Conversion FU's:               7 | 0.186618

   ========= Static FU's ==========================
   Counter FU's:                    0
   Integer Add/Sub FU's:            0
   Integer Mul/Div FU's:            0
   Integer Shifter FU's:            0
   Integer Bitwise FU's:            0
   Floating Point Float Add/Sub:    0
   Floating Point Double Add/Sub:   0
   Floating Point Float Mul/Div:    0
   Floating Point Double Mul/Div:   0
   0 Cycle Compare FU's:            0
   GEP Instruction FU's:            0
   Type Conversion FU's:            0
   Other:                           0

   ========= Pipeline Register Usage =============
   Total Number of Registers:       1702
   Max Register Usage Per Cycle:    20
   Avg Register Usage Per Cycle:    6.348199
   Avg Register Size (Bytes):       5.569148

   ========= Memory Configuration =================
   Cache Bus Ports:                 0
   Shared Cache Size:               0kB
   Local Bus Ports:                 0
   Private SPM Size:                192kB
   Private Read Ports:              0
   Private Write Ports:             0
   Private Read Bus Width:          64
   Private Write Bus Width:         64
       Memory Reads:                0
       Memory Writes:               0
   ========= Power Analysis ======================
   FU Leakage Power:                0.196912 mW 
   FU Dynamic Power:                2743.028564 mW 
   FU Total Power:                  2743.225586 mW 

   Registers Leakage Power:          0.002459 mW 
   Registers Dynamic Power:          75.251152 mW 
       Register Reads (Bits):        9811808
       Register Writes (Bits):       10049727
   Registers Total Power:            75.253609 mW

   SPM Leakage Power:               0.078311 mW
   SPM Read Dynamic Power:          37.099763 mW
   SPM Write Dynamic Power:         5.754209 mW
   SPM Total Power:                 42.932282 mW

   SPM Energy Per Read Access:      0.130935 nJ
   SPM Energy Per Write Access:     0.166637 nJ

   Cache Leakage Power:             0.000000 mW
   Cache Read Dynamic Power:        0.000000 mW
   Cache Write Dynamic Power:       0.000000 mW
   Cache Total Power:               0.000000 mW

   Accelerator Power:               2818.479248 mW
   Accelerator Power (SPM):         2861.411530 mW
   Accelerator Power (Cache):       2818.479248 mW

   ========= Area Analysis =======================
   FU Area:                         22931.867188 um^2 (0.022932 mm^2)
   Register Area:                   199.868912 um^2 (0.000200 mm^2)
   SPM Area:                        1748.188735 um^2 (0.001748 mm^2)
   Cache Area:                      0.000000 um^2 (0.000000 mm^2)

   Accelerator Area:                23131.736328 um^2 (0.023132 mm^2)
   Accelerator Area (SPM):          24879.925063 um^2 (0.024880 mm^2)
   Accelerator Area (Cache):        23131.736328 um^2 (0.023132 mm^2)

   ========= SPM Resizing  =======================
   SPM Optimized Leakage Power:     0.002053 mW
   SPM Opt Area:                    145.024971 um^2

19189897500: global: Timer #0 started at tick 19189897500
19190128750: global: Timer #2 started at tick 19190128750
19190158750: global: Timer #2 stopped at tick 19190158750. Duration: 30000
19190379375: global: DAG ID = 1
19190391875: global: Node ID = 20
19190405000: global: Node deadline difference = 2244
19190417500: global: Predicted memory time / byte = 0 us/byte
19190430000: global: Predicted memory time = 0 us
19190442500: global: Predicted memory time / byte = 0 us/byte
19190455000: global: Predicted memory time = 0 us
19190467500: global: Predicted memory time / byte = 0 us/byte
19190480000: global: Predicted memory time = 0 us
19190492500: global: Predicted memory time / byte = 0 us/byte
19190505000: global: Predicted memory time = 0 us
19190517500: global: Predicted memory access size = 0
19190530000: global: Predicted memory access size = 65536
19190542500: global: Predicted memory access size = 0
19190555000: global: Predicted memory access size = 0
19190630000: global: Timer #6 started at tick 19190630000
19190722500: global: Timer #7 started at tick 19190722500
19191351625: system.acctest.elem_matrix0_dma: SRC:0x0000000082178740, DST:0x0000000024000020, LEN:65536
19191475000: global: Timer #7 stopped at tick 19191475000. Duration: 752500
19191490000: global: Timer #6 stopped at tick 19191490000. Duration: 860000
19191558750: global: Timer #0 stopped at tick 19191558750. Duration: 1661250
19191573125: global: Number of accelerators running = 1
19203244625: system.acctest.elem_matrix0_dma: Transfer completed in 11.893 us
19203330000: global: Timer #0 started at tick 19203330000
19203483750: global: Timer #6 started at tick 19203483750
19203564375: global: Timer #7 started at tick 19203564375
19204200875: system.acctest.elem_matrix0_dma: SRC:0x0000000022020020, DST:0x0000000024010020, LEN:65536
19204330000: global: Timer #7 stopped at tick 19204330000. Duration: 765625
19204347500: global: Timer #6 stopped at tick 19204347500. Duration: 863750
19204441250: global: Timer #0 stopped at tick 19204441250. Duration: 1111250
19204455625: global: Number of accelerators running = 1
19214461875: system.acctest.elem_matrix0_dma: Transfer completed in 10.261 us
19214538125: global: Timer #0 started at tick 19214538125
19214683125: global: Timer #6 started at tick 19214683125
19214740625: global: Timer #7 started at tick 19214740625
19215737500: global: Timer #7 stopped at tick 19215737500. Duration: 996875
19215780625: global: Timer #6 stopped at tick 19215780625. Duration: 1097500
19215862500: global: Timer #0 stopped at tick 19215862500. Duration: 1324375
19215876875: global: Number of accelerators running = 1
********************************************************************************
system.acctest.elem_matrix0.compute
   ========= Performance Analysis =============
   Setup Time:                      5.060873seconds
   Simulation Time:                 154.244932seconds
   System Clock:                    1.000000GHz
   Transistor Latency:              1ns
   Runtime:                         10932 cycles
   Runtime:                         10.932000 us
   Stalls:                          1 cycles
   Executed Nodes:                  10930 cycles

********************************************************************************
   ========= Performance Analysis =================
   Setup Time:                      5060872551.000000ns
   Simulation Time:                 154244932114.000000ns
   System Clock:                    1.000000GHz
   Transistor Latency:              0ns
   Runtime:                         10932 cycles
   Runtime:                         0.000001 seconds
   Stalls:                          1 cycles
       Load Only:                   0 cycles
       Store Only:                  1 cycles
       Compute Only:                0 cycles
       Compute & Store:             0 cycles
       Load & Store:                0 cycles
       Load & Compute:              0 cycles
       Load & Compute & Store:      0 cycles
   Executed Nodes:                  10930 cycles
       Load Only:                   0 cycles
       Store Only:                  4 cycles
       Compute Only:                1 cycles
       Compute & Store:             21 cycles
       Load & Store:                0 cycles
       Load & Compute:              6 cycles
       Load & Compute & Store:      10898 cycles

   ========= Runtime FU's ========= (Max | Avg) ===
   Counter FU's:                      32 | 0.046838
   Integer Add/Sub FU's:               0 | 0.000000
   Integer Mul/Div FU's:               0 | 0.000000
   Integer Shifter FU's:               0 | 0.000000
   Integer Bitwise FU's:               1 | 0.000091
   Floating Point Float Add/Sub:       0 | 0.000000
   Floating Point Double Add/Sub:      0 | 0.000000
   Floating Point Float Mul/Div:      34 | 0.044252
   Floating Point Double Mul/Div:      0 | 0.000000
   0 Cycle Compare FU's:             102 | 0.046945
   GEP Instruction FU's:              96 | 0.046835
   Type Conversion FU's:               7 | 0.006782

   ========= Static FU's ==========================
   Counter FU's:                    0
   Integer Add/Sub FU's:            0
   Integer Mul/Div FU's:            0
   Integer Shifter FU's:            0
   Integer Bitwise FU's:            0
   Floating Point Float Add/Sub:    0
   Floating Point Double Add/Sub:   0
   Floating Point Float Mul/Div:    0
   Floating Point Double Mul/Div:   0
   0 Cycle Compare FU's:            0
   GEP Instruction FU's:            0
   Type Conversion FU's:            0
   Other:                           0

   ========= Pipeline Register Usage =============
   Total Number of Registers:       5641
   Max Register Usage Per Cycle:    137
   Avg Register Usage Per Cycle:    12.130992
   Avg Register Size (Bytes):       5.980606

   ========= Memory Configuration =================
   Cache Bus Ports:                 0
   Shared Cache Size:               0kB
   Local Bus Ports:                 0
   Private SPM Size:                256kB
   Private Read Ports:              0
   Private Write Ports:             0
   Private Read Bus Width:          64
   Private Write Bus Width:         64
       Memory Reads:                0
       Memory Writes:               0
   ========= Power Analysis ======================
   FU Leakage Power:                0.045377 mW 
   FU Dynamic Power:                0.142576 mW 
   FU Total Power:                  0.187953 mW 

   Registers Leakage Power:          0.005281 mW 
   Registers Dynamic Power:          0.015326 mW 
       Register Reads (Bits):        132616
       Register Writes (Bits):       133658
   Registers Total Power:            0.020607 mW

   SPM Leakage Power:               0.104100 mW
   SPM Read Dynamic Power:          9.053171 mW
   SPM Write Dynamic Power:         6.188103 mW
   SPM Total Power:                 15.345374 mW

   SPM Energy Per Read Access:      0.170493 nJ
   SPM Energy Per Write Access:     0.218190 nJ

   Cache Leakage Power:             0.000000 mW
   Cache Read Dynamic Power:        0.000000 mW
   Cache Write Dynamic Power:       0.000000 mW
   Cache Total Power:               0.000000 mW

   Accelerator Power:               0.208559 mW
   Accelerator Power (SPM):         15.553934 mW
   Accelerator Power (Cache):       0.208559 mW

   ========= Area Analysis =======================
   FU Area:                         5472.068359 um^2 (0.005472 mm^2)
   Register Area:                   429.271088 um^2 (0.000429 mm^2)
   SPM Area:                        2177.365505 um^2 (0.002177 mm^2)
   Cache Area:                      0.000000 um^2 (0.000000 mm^2)

   Accelerator Area:                5901.339355 um^2 (0.005901 mm^2)
   Accelerator Area (SPM):          8078.704860 um^2 (0.008079 mm^2)
   Accelerator Area (Cache):        5901.339355 um^2 (0.005901 mm^2)

   ========= SPM Resizing  =======================
   SPM Optimized Leakage Power:     0.004248 mW
   SPM Opt Area:                    178.524902 um^2

19226634375: global: Timer #0 started at tick 19226634375
19226844375: global: Timer #7 started at tick 19226844375
19227479500: system.acctest.elem_matrix0_dma: SRC:0x0000000024030020, DST:0x0000000082178740, LEN:65536
19227616250: global: Timer #7 stopped at tick 19227616250. Duration: 771875
19227842500: global: Timer #0 stopped at tick 19227842500. Duration: 1208125
19227856875: global: Number of accelerators running = 1
19233774500: system.acctest.elem_matrix0_dma: Transfer completed in 6.295 us
19233851250: global: Timer #0 started at tick 19233851250
19234028125: global: DAG ID = 1
19234040625: global: Node ID = 21
19234064375: global: DAG execution time = 18898
19234077500: global: DAG deadline difference = 2231
19234094375: global: Node deadline difference = 2231
19234106875: global: Predicted memory time / byte = 0 us/byte
19234119375: global: Predicted memory time = 0 us
19234131875: global: Predicted memory time / byte = 0 us/byte
19234144375: global: Predicted memory time = 0 us
19234156875: global: Predicted memory time / byte = 0 us/byte
19234169375: global: Predicted memory time = 0 us
19234181875: global: Predicted memory time / byte = 0 us/byte
19234194375: global: Predicted memory time = 0 us
19234206875: global: Predicted memory access size = 0
19234219375: global: Predicted memory access size = 131072
19234231875: global: Predicted memory access size = 0
19234244375: global: Predicted memory access size = 65536
19234343750: global: Timer #0 stopped at tick 19234343750. Duration: 492500
19234358125: global: Number of accelerators running = 0
19234439375: global: Number of forwards = 35
19234512500: global: Number of colocations = 4
19234531250: global: Number of DAG deadlines met = 1
19234550000: global: Number of node deadlines met = 14
19234590000: global: Total predicted compute time = 0 us
Exiting @ tick 19234735000 because m5_exit instruction encountered
