
---------- Begin Simulation Statistics ----------
final_tick                                24561757500                       # Number of ticks from beginning of simulation (restored from checkpoints and never reset)
host_inst_rate                                    294                       # Simulator instruction rate (inst/s)
host_mem_usage                                8562152                       # Number of bytes of host memory used
host_op_rate                                      303                       # Simulator op (including micro ops) rate (op/s)
host_seconds                                 23819.32                       # Real time elapsed on the host
host_tick_rate                                 792395                       # Simulator tick rate (ticks/s)
sim_freq                                 1000000000000                       # Frequency of simulated ticks
sim_insts                                     7009119                       # Number of instructions simulated
sim_ops                                       7210145                       # Number of ops (including micro ops) simulated
sim_seconds                                  0.018874                       # Number of seconds simulated
sim_ticks                                 18874310000                       # Number of ticks simulated
system.acctest.coherency_bus.snoop_filter.hit_multi_requests            0                       # Number of requests hitting in the snoop filter with multiple (>1) holders of the requested data.
system.acctest.coherency_bus.snoop_filter.hit_multi_snoops            0                       # Number of snoops hitting in the snoop filter with multiple (>1) holders of the requested data.
system.acctest.coherency_bus.snoop_filter.hit_single_requests            0                       # Number of requests hitting in the snoop filter with a single holder of the requested data.
system.acctest.coherency_bus.snoop_filter.hit_single_snoops            0                       # Number of snoops hitting in the snoop filter with a single holder of the requested data.
system.acctest.coherency_bus.snoop_filter.tot_requests            0                       # Total number of requests made to the snoop filter.
system.acctest.coherency_bus.snoop_filter.tot_snoops            0                       # Total number of snoops made to the snoop filter.
system.cf0.dma_read_bytes                           0                       # Number of bytes transfered via DMA reads (not PRD).
system.cf0.dma_read_full_pages                      0                       # Number of full page size DMA reads (not PRD).
system.cf0.dma_read_txs                             0                       # Number of DMA read transactions (not PRD).
system.cf0.dma_write_bytes                          0                       # Number of bytes transfered via DMA writes.
system.cf0.dma_write_full_pages                     0                       # Number of full page size DMA writes.
system.cf0.dma_write_txs                            0                       # Number of DMA write transactions.
system.cpu.branchPred.BTBCorrect                    0                       # Number of correct BTB predictions (this stat may not work properly.
system.cpu.branchPred.BTBHitPct             70.892522                       # BTB Hit Percentage
system.cpu.branchPred.BTBHits                   26450                       # Number of BTB hits
system.cpu.branchPred.BTBLookups                37310                       # Number of BTB lookups
system.cpu.branchPred.RASInCorrect                467                       # Number of incorrect RAS predictions.
system.cpu.branchPred.condIncorrect              4221                       # Number of conditional branches incorrect
system.cpu.branchPred.condPredicted             35743                       # Number of conditional branches predicted
system.cpu.branchPred.indirectHits               4277                       # Number of indirect target hits.
system.cpu.branchPred.indirectLookups            5585                       # Number of indirect predictor lookups.
system.cpu.branchPred.indirectMisses             1308                       # Number of indirect misses.
system.cpu.branchPred.lookups                   64267                       # Number of BP lookups
system.cpu.branchPred.usedRAS                   10878                       # Number of times the RAS was used to get a target.
system.cpu.branchPredindirectMispredicted         1178                       # Number of mispredicted indirect branches.
system.cpu.committedInsts                      333177                       # Number of instructions committed
system.cpu.committedOps                        368887                       # Number of ops (including micro ops) committed
system.cpu.cpi                               3.767139                       # CPI: cycles per instruction
system.cpu.discardedOps                         11552                       # Number of ops (including micro ops) which were discarded before commit
system.cpu.dtb.accesses                             0                       # DTB accesses
system.cpu.dtb.align_faults                         0                       # Number of TLB faults due to alignment restrictions
system.cpu.dtb.domain_faults                        0                       # Number of TLB faults due to domain restrictions
system.cpu.dtb.flush_entries                        0                       # Number of entries that have been flushed from TLB
system.cpu.dtb.flush_tlb                            0                       # Number of times complete TLB was flushed
system.cpu.dtb.flush_tlb_asid                       0                       # Number of times TLB was flushed by ASID
system.cpu.dtb.flush_tlb_mva                        0                       # Number of times TLB was flushed by MVA
system.cpu.dtb.flush_tlb_mva_asid                   0                       # Number of times TLB was flushed by MVA & ASID
system.cpu.dtb.hits                                 0                       # DTB hits
system.cpu.dtb.inst_accesses                        0                       # ITB inst accesses
system.cpu.dtb.inst_hits                            0                       # ITB inst hits
system.cpu.dtb.inst_misses                          0                       # ITB inst misses
system.cpu.dtb.misses                               0                       # DTB misses
system.cpu.dtb.perms_faults                         0                       # Number of TLB faults due to permissions restrictions
system.cpu.dtb.prefetch_faults                      0                       # Number of TLB faults due to prefetch
system.cpu.dtb.read_accesses                        0                       # DTB read accesses
system.cpu.dtb.read_hits                            0                       # DTB read hits
system.cpu.dtb.read_misses                          0                       # DTB read misses
system.cpu.dtb.stage2_mmu.stage2_tlb.accesses            0                       # DTB accesses
system.cpu.dtb.stage2_mmu.stage2_tlb.align_faults            0                       # Number of TLB faults due to alignment restrictions
system.cpu.dtb.stage2_mmu.stage2_tlb.domain_faults            0                       # Number of TLB faults due to domain restrictions
system.cpu.dtb.stage2_mmu.stage2_tlb.flush_entries            0                       # Number of entries that have been flushed from TLB
system.cpu.dtb.stage2_mmu.stage2_tlb.flush_tlb            0                       # Number of times complete TLB was flushed
system.cpu.dtb.stage2_mmu.stage2_tlb.flush_tlb_asid            0                       # Number of times TLB was flushed by ASID
system.cpu.dtb.stage2_mmu.stage2_tlb.flush_tlb_mva            0                       # Number of times TLB was flushed by MVA
system.cpu.dtb.stage2_mmu.stage2_tlb.flush_tlb_mva_asid            0                       # Number of times TLB was flushed by MVA & ASID
system.cpu.dtb.stage2_mmu.stage2_tlb.hits            0                       # DTB hits
system.cpu.dtb.stage2_mmu.stage2_tlb.inst_accesses            0                       # ITB inst accesses
system.cpu.dtb.stage2_mmu.stage2_tlb.inst_hits            0                       # ITB inst hits
system.cpu.dtb.stage2_mmu.stage2_tlb.inst_misses            0                       # ITB inst misses
system.cpu.dtb.stage2_mmu.stage2_tlb.misses            0                       # DTB misses
system.cpu.dtb.stage2_mmu.stage2_tlb.perms_faults            0                       # Number of TLB faults due to permissions restrictions
system.cpu.dtb.stage2_mmu.stage2_tlb.prefetch_faults            0                       # Number of TLB faults due to prefetch
system.cpu.dtb.stage2_mmu.stage2_tlb.read_accesses            0                       # DTB read accesses
system.cpu.dtb.stage2_mmu.stage2_tlb.read_hits            0                       # DTB read hits
system.cpu.dtb.stage2_mmu.stage2_tlb.read_misses            0                       # DTB read misses
system.cpu.dtb.stage2_mmu.stage2_tlb.walker.walkRequestOrigin_Requested::Data            0                       # Table walker requests started/completed, data/inst
system.cpu.dtb.stage2_mmu.stage2_tlb.walker.walkRequestOrigin_Requested::Inst            0                       # Table walker requests started/completed, data/inst
system.cpu.dtb.stage2_mmu.stage2_tlb.walker.walkRequestOrigin_Requested::total            0                       # Table walker requests started/completed, data/inst
system.cpu.dtb.stage2_mmu.stage2_tlb.walker.walkRequestOrigin_Completed::Data            0                       # Table walker requests started/completed, data/inst
system.cpu.dtb.stage2_mmu.stage2_tlb.walker.walkRequestOrigin_Completed::Inst            0                       # Table walker requests started/completed, data/inst
system.cpu.dtb.stage2_mmu.stage2_tlb.walker.walkRequestOrigin_Completed::total            0                       # Table walker requests started/completed, data/inst
system.cpu.dtb.stage2_mmu.stage2_tlb.walker.walkRequestOrigin::total            0                       # Table walker requests started/completed, data/inst
system.cpu.dtb.stage2_mmu.stage2_tlb.walker.walks            0                       # Table walker walks requested
system.cpu.dtb.stage2_mmu.stage2_tlb.write_accesses            0                       # DTB write accesses
system.cpu.dtb.stage2_mmu.stage2_tlb.write_hits            0                       # DTB write hits
system.cpu.dtb.stage2_mmu.stage2_tlb.write_misses            0                       # DTB write misses
system.cpu.dtb.walker.walkRequestOrigin_Requested::Data            0                       # Table walker requests started/completed, data/inst
system.cpu.dtb.walker.walkRequestOrigin_Requested::Inst            0                       # Table walker requests started/completed, data/inst
system.cpu.dtb.walker.walkRequestOrigin_Requested::total            0                       # Table walker requests started/completed, data/inst
system.cpu.dtb.walker.walkRequestOrigin_Completed::Data            0                       # Table walker requests started/completed, data/inst
system.cpu.dtb.walker.walkRequestOrigin_Completed::Inst            0                       # Table walker requests started/completed, data/inst
system.cpu.dtb.walker.walkRequestOrigin_Completed::total            0                       # Table walker requests started/completed, data/inst
system.cpu.dtb.walker.walkRequestOrigin::total            0                       # Table walker requests started/completed, data/inst
system.cpu.dtb.walker.walks                         0                       # Table walker walks requested
system.cpu.dtb.write_accesses                       0                       # DTB write accesses
system.cpu.dtb.write_hits                           0                       # DTB write hits
system.cpu.dtb.write_misses                         0                       # DTB write misses
system.cpu.fetch2.amo_instructions                  0                       # Number of memory atomic instructions successfully decoded
system.cpu.fetch2.fp_instructions                   0                       # Number of floating point instructions successfully decoded
system.cpu.fetch2.int_instructions             204896                       # Number of integer instructions successfully decoded
system.cpu.fetch2.load_instructions             91713                       # Number of memory load instructions successfully decoded
system.cpu.fetch2.store_instructions            38442                       # Number of memory store instructions successfully decoded
system.cpu.fetch2.vec_instructions                  0                       # Number of SIMD instructions successfully decoded
system.cpu.idleCycles                          781125                       # Total number of cycles that the object has spent stopped
system.cpu.ipc                               0.265453                       # IPC: instructions per cycle
system.cpu.itb.accesses                             0                       # DTB accesses
system.cpu.itb.align_faults                         0                       # Number of TLB faults due to alignment restrictions
system.cpu.itb.domain_faults                        0                       # Number of TLB faults due to domain restrictions
system.cpu.itb.flush_entries                        0                       # Number of entries that have been flushed from TLB
system.cpu.itb.flush_tlb                            0                       # Number of times complete TLB was flushed
system.cpu.itb.flush_tlb_asid                       0                       # Number of times TLB was flushed by ASID
system.cpu.itb.flush_tlb_mva                        0                       # Number of times TLB was flushed by MVA
system.cpu.itb.flush_tlb_mva_asid                   0                       # Number of times TLB was flushed by MVA & ASID
system.cpu.itb.hits                                 0                       # DTB hits
system.cpu.itb.inst_accesses                        0                       # ITB inst accesses
system.cpu.itb.inst_hits                            0                       # ITB inst hits
system.cpu.itb.inst_misses                          0                       # ITB inst misses
system.cpu.itb.misses                               0                       # DTB misses
system.cpu.itb.perms_faults                         0                       # Number of TLB faults due to permissions restrictions
system.cpu.itb.prefetch_faults                      0                       # Number of TLB faults due to prefetch
system.cpu.itb.read_accesses                        0                       # DTB read accesses
system.cpu.itb.read_hits                            0                       # DTB read hits
system.cpu.itb.read_misses                          0                       # DTB read misses
system.cpu.itb.stage2_mmu.stage2_tlb.accesses            0                       # DTB accesses
system.cpu.itb.stage2_mmu.stage2_tlb.align_faults            0                       # Number of TLB faults due to alignment restrictions
system.cpu.itb.stage2_mmu.stage2_tlb.domain_faults            0                       # Number of TLB faults due to domain restrictions
system.cpu.itb.stage2_mmu.stage2_tlb.flush_entries            0                       # Number of entries that have been flushed from TLB
system.cpu.itb.stage2_mmu.stage2_tlb.flush_tlb            0                       # Number of times complete TLB was flushed
system.cpu.itb.stage2_mmu.stage2_tlb.flush_tlb_asid            0                       # Number of times TLB was flushed by ASID
system.cpu.itb.stage2_mmu.stage2_tlb.flush_tlb_mva            0                       # Number of times TLB was flushed by MVA
system.cpu.itb.stage2_mmu.stage2_tlb.flush_tlb_mva_asid            0                       # Number of times TLB was flushed by MVA & ASID
system.cpu.itb.stage2_mmu.stage2_tlb.hits            0                       # DTB hits
system.cpu.itb.stage2_mmu.stage2_tlb.inst_accesses            0                       # ITB inst accesses
system.cpu.itb.stage2_mmu.stage2_tlb.inst_hits            0                       # ITB inst hits
system.cpu.itb.stage2_mmu.stage2_tlb.inst_misses            0                       # ITB inst misses
system.cpu.itb.stage2_mmu.stage2_tlb.misses            0                       # DTB misses
system.cpu.itb.stage2_mmu.stage2_tlb.perms_faults            0                       # Number of TLB faults due to permissions restrictions
system.cpu.itb.stage2_mmu.stage2_tlb.prefetch_faults            0                       # Number of TLB faults due to prefetch
system.cpu.itb.stage2_mmu.stage2_tlb.read_accesses            0                       # DTB read accesses
system.cpu.itb.stage2_mmu.stage2_tlb.read_hits            0                       # DTB read hits
system.cpu.itb.stage2_mmu.stage2_tlb.read_misses            0                       # DTB read misses
system.cpu.itb.stage2_mmu.stage2_tlb.walker.walkRequestOrigin_Requested::Data            0                       # Table walker requests started/completed, data/inst
system.cpu.itb.stage2_mmu.stage2_tlb.walker.walkRequestOrigin_Requested::Inst            0                       # Table walker requests started/completed, data/inst
system.cpu.itb.stage2_mmu.stage2_tlb.walker.walkRequestOrigin_Requested::total            0                       # Table walker requests started/completed, data/inst
system.cpu.itb.stage2_mmu.stage2_tlb.walker.walkRequestOrigin_Completed::Data            0                       # Table walker requests started/completed, data/inst
system.cpu.itb.stage2_mmu.stage2_tlb.walker.walkRequestOrigin_Completed::Inst            0                       # Table walker requests started/completed, data/inst
system.cpu.itb.stage2_mmu.stage2_tlb.walker.walkRequestOrigin_Completed::total            0                       # Table walker requests started/completed, data/inst
system.cpu.itb.stage2_mmu.stage2_tlb.walker.walkRequestOrigin::total            0                       # Table walker requests started/completed, data/inst
system.cpu.itb.stage2_mmu.stage2_tlb.walker.walks            0                       # Table walker walks requested
system.cpu.itb.stage2_mmu.stage2_tlb.write_accesses            0                       # DTB write accesses
system.cpu.itb.stage2_mmu.stage2_tlb.write_hits            0                       # DTB write hits
system.cpu.itb.stage2_mmu.stage2_tlb.write_misses            0                       # DTB write misses
system.cpu.itb.walker.walkRequestOrigin_Requested::Data            0                       # Table walker requests started/completed, data/inst
system.cpu.itb.walker.walkRequestOrigin_Requested::Inst            0                       # Table walker requests started/completed, data/inst
system.cpu.itb.walker.walkRequestOrigin_Requested::total            0                       # Table walker requests started/completed, data/inst
system.cpu.itb.walker.walkRequestOrigin_Completed::Data            0                       # Table walker requests started/completed, data/inst
system.cpu.itb.walker.walkRequestOrigin_Completed::Inst            0                       # Table walker requests started/completed, data/inst
system.cpu.itb.walker.walkRequestOrigin_Completed::total            0                       # Table walker requests started/completed, data/inst
system.cpu.itb.walker.walkRequestOrigin::total            0                       # Table walker requests started/completed, data/inst
system.cpu.itb.walker.walks                         0                       # Table walker walks requested
system.cpu.itb.write_accesses                       0                       # DTB write accesses
system.cpu.itb.write_hits                           0                       # DTB write hits
system.cpu.itb.write_misses                         0                       # DTB write misses
system.cpu.kern.inst.arm                            0                       # number of arm instructions executed
system.cpu.kern.inst.quiesce                      453                       # number of quiesce instructions executed
system.cpu.numCycles                          1255124                       # number of cpu cycles simulated
system.cpu.numFetchSuspends                       453                       # Number of times Execute suspended instruction fetching
system.cpu.numWorkItemsCompleted                    0                       # number of work items this cpu completed
system.cpu.numWorkItemsStarted                      0                       # number of work items this cpu started
system.cpu.op_class_0::No_OpClass                   0      0.00%      0.00% # Class of committed instruction
system.cpu.op_class_0::IntAlu                  221234     59.97%     59.97% # Class of committed instruction
system.cpu.op_class_0::IntMult                   1035      0.28%     60.25% # Class of committed instruction
system.cpu.op_class_0::IntDiv                       0      0.00%     60.25% # Class of committed instruction
system.cpu.op_class_0::FloatAdd                     0      0.00%     60.25% # Class of committed instruction
system.cpu.op_class_0::FloatCmp                     0      0.00%     60.25% # Class of committed instruction
system.cpu.op_class_0::FloatCvt                     0      0.00%     60.25% # Class of committed instruction
system.cpu.op_class_0::FloatMult                    0      0.00%     60.25% # Class of committed instruction
system.cpu.op_class_0::FloatMultAcc                 0      0.00%     60.25% # Class of committed instruction
system.cpu.op_class_0::FloatDiv                     0      0.00%     60.25% # Class of committed instruction
system.cpu.op_class_0::FloatMisc                    0      0.00%     60.25% # Class of committed instruction
system.cpu.op_class_0::FloatSqrt                    0      0.00%     60.25% # Class of committed instruction
system.cpu.op_class_0::SimdAdd                      0      0.00%     60.25% # Class of committed instruction
system.cpu.op_class_0::SimdAddAcc                   0      0.00%     60.25% # Class of committed instruction
system.cpu.op_class_0::SimdAlu                      0      0.00%     60.25% # Class of committed instruction
system.cpu.op_class_0::SimdCmp                      0      0.00%     60.25% # Class of committed instruction
system.cpu.op_class_0::SimdCvt                      0      0.00%     60.25% # Class of committed instruction
system.cpu.op_class_0::SimdMisc                     0      0.00%     60.25% # Class of committed instruction
system.cpu.op_class_0::SimdMult                     0      0.00%     60.25% # Class of committed instruction
system.cpu.op_class_0::SimdMultAcc                  0      0.00%     60.25% # Class of committed instruction
system.cpu.op_class_0::SimdShift                    0      0.00%     60.25% # Class of committed instruction
system.cpu.op_class_0::SimdShiftAcc                 0      0.00%     60.25% # Class of committed instruction
system.cpu.op_class_0::SimdDiv                      0      0.00%     60.25% # Class of committed instruction
system.cpu.op_class_0::SimdSqrt                     0      0.00%     60.25% # Class of committed instruction
system.cpu.op_class_0::SimdFloatAdd                 0      0.00%     60.25% # Class of committed instruction
system.cpu.op_class_0::SimdFloatAlu                 0      0.00%     60.25% # Class of committed instruction
system.cpu.op_class_0::SimdFloatCmp                 0      0.00%     60.25% # Class of committed instruction
system.cpu.op_class_0::SimdFloatCvt                 0      0.00%     60.25% # Class of committed instruction
system.cpu.op_class_0::SimdFloatDiv                 0      0.00%     60.25% # Class of committed instruction
system.cpu.op_class_0::SimdFloatMisc                0      0.00%     60.25% # Class of committed instruction
system.cpu.op_class_0::SimdFloatMult                0      0.00%     60.25% # Class of committed instruction
system.cpu.op_class_0::SimdFloatMultAcc             0      0.00%     60.25% # Class of committed instruction
system.cpu.op_class_0::SimdFloatSqrt                0      0.00%     60.25% # Class of committed instruction
system.cpu.op_class_0::SimdReduceAdd                0      0.00%     60.25% # Class of committed instruction
system.cpu.op_class_0::SimdReduceAlu                0      0.00%     60.25% # Class of committed instruction
system.cpu.op_class_0::SimdReduceCmp                0      0.00%     60.25% # Class of committed instruction
system.cpu.op_class_0::SimdFloatReduceAdd            0      0.00%     60.25% # Class of committed instruction
system.cpu.op_class_0::SimdFloatReduceCmp            0      0.00%     60.25% # Class of committed instruction
system.cpu.op_class_0::SimdAes                      0      0.00%     60.25% # Class of committed instruction
system.cpu.op_class_0::SimdAesMix                   0      0.00%     60.25% # Class of committed instruction
system.cpu.op_class_0::SimdSha1Hash                 0      0.00%     60.25% # Class of committed instruction
system.cpu.op_class_0::SimdSha1Hash2                0      0.00%     60.25% # Class of committed instruction
system.cpu.op_class_0::SimdSha256Hash               0      0.00%     60.25% # Class of committed instruction
system.cpu.op_class_0::SimdSha256Hash2              0      0.00%     60.25% # Class of committed instruction
system.cpu.op_class_0::SimdShaSigma2                0      0.00%     60.25% # Class of committed instruction
system.cpu.op_class_0::SimdShaSigma3                0      0.00%     60.25% # Class of committed instruction
system.cpu.op_class_0::SimdPredAlu                  0      0.00%     60.25% # Class of committed instruction
system.cpu.op_class_0::MemRead                  89283     24.20%     84.46% # Class of committed instruction
system.cpu.op_class_0::MemWrite                 57335     15.54%    100.00% # Class of committed instruction
system.cpu.op_class_0::FloatMemRead                 0      0.00%    100.00% # Class of committed instruction
system.cpu.op_class_0::FloatMemWrite                0      0.00%    100.00% # Class of committed instruction
system.cpu.op_class_0::IprAccess                    0      0.00%    100.00% # Class of committed instruction
system.cpu.op_class_0::InstPrefetch                 0      0.00%    100.00% # Class of committed instruction
system.cpu.op_class_0::total                   368887                       # Class of committed instruction
system.cpu.quiesceCycles                     28943772                       # Total number of cycles that CPU has spent quiesced or waiting for an interrupt
system.cpu.tickCycles                          473999                       # Number of cycles that the object actually ticked
system.membus.snoop_filter.hit_multi_requests            8                       # Number of requests hitting in the snoop filter with multiple (>1) holders of the requested data.
system.membus.snoop_filter.hit_multi_snoops            0                       # Number of snoops hitting in the snoop filter with multiple (>1) holders of the requested data.
system.membus.snoop_filter.hit_single_requests          409                       # Number of requests hitting in the snoop filter with a single holder of the requested data.
system.membus.snoop_filter.hit_single_snoops            0                       # Number of snoops hitting in the snoop filter with a single holder of the requested data.
system.membus.snoop_filter.tot_requests          1081                       # Total number of requests made to the snoop filter.
system.membus.snoop_filter.tot_snoops               0                       # Total number of snoops made to the snoop filter.
system.bridge.pwrStateResidencyTicks::UNDEFINED  24561757500                       # Cumulative time (in ticks) in various power states
system.voltage_domain.voltage                       1                       # Voltage in Volts
system.iocache.pwrStateResidencyTicks::UNDEFINED  24561757500                       # Cumulative time (in ticks) in various power states
system.iocache.blocked_cycles::no_mshrs             0                       # number of cycles access was blocked
system.iocache.blocked_cycles::no_targets            0                       # number of cycles access was blocked
system.iocache.blocked::no_mshrs                    0                       # number of cycles access was blocked
system.iocache.blocked::no_targets                  0                       # number of cycles access was blocked
system.iocache.avg_blocked_cycles::no_mshrs          nan                       # average number of cycles each access was blocked
system.iocache.avg_blocked_cycles::no_targets          nan                       # average number of cycles each access was blocked
system.iocache.replacements                         0                       # number of replacements
system.iocache.tags.pwrStateResidencyTicks::UNDEFINED  24561757500                       # Cumulative time (in ticks) in various power states
system.iocache.tags.tagsinuse                       0                       # Cycle average of tags in use
system.iocache.tags.total_refs                      0                       # Total number of references to valid blocks.
system.iocache.tags.sampled_refs                    0                       # Sample count of references to valid blocks.
system.iocache.tags.avg_refs                      nan                       # Average number of references to valid blocks.
system.iocache.tags.warmup_cycle                    0                       # Cycle when the warmup percentage was hit.
system.iocache.tags.tag_accesses                    0                       # Number of tag accesses
system.iocache.tags.data_accesses                   0                       # Number of data accesses
system.membus.pwrStateResidencyTicks::UNDEFINED  24561757500                       # Cumulative time (in ticks) in various power states
system.membus.trans_dist::ReadReq              178178                       # Transaction distribution
system.membus.trans_dist::ReadResp             178727                       # Transaction distribution
system.membus.trans_dist::WriteReq             103798                       # Transaction distribution
system.membus.trans_dist::WriteResp            103798                       # Transaction distribution
system.membus.trans_dist::WritebackDirty          172                       # Transaction distribution
system.membus.trans_dist::CleanEvict              222                       # Transaction distribution
system.membus.trans_dist::ReadExReq               132                       # Transaction distribution
system.membus.trans_dist::ReadExResp              131                       # Transaction distribution
system.membus.trans_dist::ReadCleanReq            266                       # Transaction distribution
system.membus.trans_dist::ReadSharedReq           283                       # Transaction distribution
system.membus.pkt_count_system.cpu.icache.mem_side::system.realview.bootmem.port          616                       # Packet count per connected master and slave (bytes)
system.membus.pkt_count_system.cpu.icache.mem_side::total          616                       # Packet count per connected master and slave (bytes)
system.membus.pkt_count_system.cpu.dcache.mem_side::system.realview.bootmem.port           58                       # Packet count per connected master and slave (bytes)
system.membus.pkt_count_system.cpu.dcache.mem_side::system.realview.gic.pio         1888                       # Packet count per connected master and slave (bytes)
system.membus.pkt_count_system.cpu.dcache.mem_side::system.mem_ctrls.port         1081                       # Packet count per connected master and slave (bytes)
system.membus.pkt_count_system.cpu.dcache.mem_side::system.acctest.mem2cls.slave         7484                       # Packet count per connected master and slave (bytes)
system.membus.pkt_count_system.cpu.dcache.mem_side::total        10511                       # Packet count per connected master and slave (bytes)
system.membus.pkt_count_system.acctest.coherency_bus.master[0]::system.mem_ctrls.port       554580                       # Packet count per connected master and slave (bytes)
system.membus.pkt_count_system.acctest.coherency_bus.master[0]::total       554580                       # Packet count per connected master and slave (bytes)
system.membus.pkt_count::total                 565707                       # Packet count per connected master and slave (bytes)
system.membus.pkt_size_system.cpu.icache.mem_side::system.realview.bootmem.port        17024                       # Cumulative packet size per connected master and slave (bytes)
system.membus.pkt_size_system.cpu.icache.mem_side::total        17024                       # Cumulative packet size per connected master and slave (bytes)
system.membus.pkt_size_system.cpu.dcache.mem_side::system.realview.bootmem.port         1536                       # Cumulative packet size per connected master and slave (bytes)
system.membus.pkt_size_system.cpu.dcache.mem_side::system.realview.gic.pio         3776                       # Cumulative packet size per connected master and slave (bytes)
system.membus.pkt_size_system.cpu.dcache.mem_side::system.mem_ctrls.port        35968                       # Cumulative packet size per connected master and slave (bytes)
system.membus.pkt_size_system.cpu.dcache.mem_side::system.acctest.mem2cls.slave        10420                       # Cumulative packet size per connected master and slave (bytes)
system.membus.pkt_size_system.cpu.dcache.mem_side::total        51700                       # Cumulative packet size per connected master and slave (bytes)
system.membus.pkt_size_system.acctest.coherency_bus.master[0]::system.mem_ctrls.port     17746076                       # Cumulative packet size per connected master and slave (bytes)
system.membus.pkt_size_system.acctest.coherency_bus.master[0]::total     17746076                       # Cumulative packet size per connected master and slave (bytes)
system.membus.pkt_size::total                17814800                       # Cumulative packet size per connected master and slave (bytes)
system.membus.snoops                                0                       # Total snoops (count)
system.membus.snoopTraffic                          0                       # Total snoop traffic (bytes)
system.membus.snoop_fanout::samples            283039                       # Request fanout histogram
system.membus.snoop_fanout::mean             0.000081                       # Request fanout histogram
system.membus.snoop_fanout::stdev            0.009014                       # Request fanout histogram
system.membus.snoop_fanout::underflows              0      0.00%      0.00% # Request fanout histogram
system.membus.snoop_fanout::0                  283016     99.99%     99.99% # Request fanout histogram
system.membus.snoop_fanout::1                      23      0.01%    100.00% # Request fanout histogram
system.membus.snoop_fanout::2                       0      0.00%    100.00% # Request fanout histogram
system.membus.snoop_fanout::3                       0      0.00%    100.00% # Request fanout histogram
system.membus.snoop_fanout::4                       0      0.00%    100.00% # Request fanout histogram
system.membus.snoop_fanout::overflows               0      0.00%    100.00% # Request fanout histogram
system.membus.snoop_fanout::min_value               0                       # Request fanout histogram
system.membus.snoop_fanout::max_value               1                       # Request fanout histogram
system.membus.snoop_fanout::total              283039                       # Request fanout histogram
system.membus.reqLayer6.occupancy           752063010                       # Layer occupancy (ticks)
system.membus.reqLayer6.utilization               4.0                       # Layer utilization (%)
system.membus.reqLayer7.occupancy             9451750                       # Layer occupancy (ticks)
system.membus.reqLayer7.utilization               0.1                       # Layer utilization (%)
system.membus.reqLayer1.occupancy              587890                       # Layer occupancy (ticks)
system.membus.reqLayer1.utilization               0.0                       # Layer utilization (%)
system.membus.reqLayer2.occupancy             1850500                       # Layer occupancy (ticks)
system.membus.reqLayer2.utilization               0.0                       # Layer utilization (%)
system.membus.badaddr_responder.pwrStateResidencyTicks::UNDEFINED  24561757500                       # Cumulative time (in ticks) in various power states
system.membus.respLayer4.occupancy            7512430                       # Layer occupancy (ticks)
system.membus.respLayer4.utilization              0.0                       # Layer utilization (%)
system.membus.respLayer7.occupancy         1098424565                       # Layer occupancy (ticks)
system.membus.respLayer7.utilization              5.8                       # Layer utilization (%)
system.membus.respLayer3.occupancy            1335250                       # Layer occupancy (ticks)
system.membus.respLayer3.utilization              0.0                       # Layer utilization (%)
system.acctest.harris_non_max0_spm.pwrStateResidencyTicks::UNDEFINED  24561757500                       # Cumulative time (in ticks) in various power states
system.acctest.elem_matrix2_spm.pwrStateResidencyTicks::UNDEFINED  24561757500                       # Cumulative time (in ticks) in various power states
system.acctest.elem_matrix3_spm.pwrStateResidencyTicks::UNDEFINED  24561757500                       # Cumulative time (in ticks) in various power states
system.acctest.local_bus.pwrStateResidencyTicks::UNDEFINED  24561757500                       # Cumulative time (in ticks) in various power states
system.acctest.local_bus.trans_dist::ReadReq       263680                       # Transaction distribution
system.acctest.local_bus.trans_dist::ReadResp       263680                       # Transaction distribution
system.acctest.local_bus.trans_dist::WriteReq       423664                       # Transaction distribution
system.acctest.local_bus.trans_dist::WriteResp       423664                       # Transaction distribution
system.acctest.local_bus.pkt_count_system.acctest.mem2cls.master::system.acctest.canny_non_max0.pio           12                       # Packet count per connected master and slave (bytes)
system.acctest.local_bus.pkt_count_system.acctest.mem2cls.master::system.acctest.canny_non_max0_dma.pio           28                       # Packet count per connected master and slave (bytes)
system.acctest.local_bus.pkt_count_system.acctest.mem2cls.master::system.acctest.convolution0.pio          260                       # Packet count per connected master and slave (bytes)
system.acctest.local_bus.pkt_count_system.acctest.mem2cls.master::system.acctest.convolution0_dma.pio          406                       # Packet count per connected master and slave (bytes)
system.acctest.local_bus.pkt_count_system.acctest.mem2cls.master::system.acctest.edge_tracking0.pio           16                       # Packet count per connected master and slave (bytes)
system.acctest.local_bus.pkt_count_system.acctest.mem2cls.master::system.acctest.edge_tracking0_dma.pio           28                       # Packet count per connected master and slave (bytes)
system.acctest.local_bus.pkt_count_system.acctest.mem2cls.master::system.acctest.elem_matrix0.pio         2700                       # Packet count per connected master and slave (bytes)
system.acctest.local_bus.pkt_count_system.acctest.mem2cls.master::system.acctest.elem_matrix0_dma.pio         3906                       # Packet count per connected master and slave (bytes)
system.acctest.local_bus.pkt_count_system.acctest.mem2cls.master::system.acctest.grayscale0.pio           20                       # Packet count per connected master and slave (bytes)
system.acctest.local_bus.pkt_count_system.acctest.mem2cls.master::system.acctest.grayscale0_dma.pio           56                       # Packet count per connected master and slave (bytes)
system.acctest.local_bus.pkt_count_system.acctest.mem2cls.master::system.acctest.isp0.pio           24                       # Packet count per connected master and slave (bytes)
system.acctest.local_bus.pkt_count_system.acctest.mem2cls.master::system.acctest.isp0_dma.pio           28                       # Packet count per connected master and slave (bytes)
system.acctest.local_bus.pkt_count_system.acctest.mem2cls.master::total         7484                       # Packet count per connected master and slave (bytes)
system.acctest.local_bus.pkt_count_system.acctest.canny_non_max0_dma.dma::system.acctest.canny_non_max0_spm.port         8192                       # Packet count per connected master and slave (bytes)
system.acctest.local_bus.pkt_count_system.acctest.canny_non_max0_dma.dma::system.acctest.elem_matrix0_spm.port         8192                       # Packet count per connected master and slave (bytes)
system.acctest.local_bus.pkt_count_system.acctest.canny_non_max0_dma.dma::total        16384                       # Packet count per connected master and slave (bytes)
system.acctest.local_bus.pkt_count_system.acctest.convolution0_dma.dma::system.acctest.convolution0_spm.port        65632                       # Packet count per connected master and slave (bytes)
system.acctest.local_bus.pkt_count_system.acctest.convolution0_dma.dma::system.acctest.elem_matrix0_spm.port        32768                       # Packet count per connected master and slave (bytes)
system.acctest.local_bus.pkt_count_system.acctest.convolution0_dma.dma::system.acctest.grayscale0_spm.port         8192                       # Packet count per connected master and slave (bytes)
system.acctest.local_bus.pkt_count_system.acctest.convolution0_dma.dma::total       106592                       # Packet count per connected master and slave (bytes)
system.acctest.local_bus.pkt_count_system.acctest.edge_tracking0_dma.dma::system.acctest.canny_non_max0_spm.port         4096                       # Packet count per connected master and slave (bytes)
system.acctest.local_bus.pkt_count_system.acctest.edge_tracking0_dma.dma::system.acctest.edge_tracking0_spm.port         5120                       # Packet count per connected master and slave (bytes)
system.acctest.local_bus.pkt_count_system.acctest.edge_tracking0_dma.dma::total         9216                       # Packet count per connected master and slave (bytes)
system.acctest.local_bus.pkt_count_system.acctest.elem_matrix0_dma.dma::system.acctest.convolution0_spm.port        49152                       # Packet count per connected master and slave (bytes)
system.acctest.local_bus.pkt_count_system.acctest.elem_matrix0_dma.dma::system.acctest.elem_matrix0_spm.port      1142784                       # Packet count per connected master and slave (bytes)
system.acctest.local_bus.pkt_count_system.acctest.elem_matrix0_dma.dma::system.acctest.grayscale0_spm.port        20480                       # Packet count per connected master and slave (bytes)
system.acctest.local_bus.pkt_count_system.acctest.elem_matrix0_dma.dma::total      1212416                       # Packet count per connected master and slave (bytes)
system.acctest.local_bus.pkt_count_system.acctest.grayscale0_dma.dma::system.acctest.grayscale0_spm.port        14336                       # Packet count per connected master and slave (bytes)
system.acctest.local_bus.pkt_count_system.acctest.grayscale0_dma.dma::system.acctest.isp0_spm.port         6144                       # Packet count per connected master and slave (bytes)
system.acctest.local_bus.pkt_count_system.acctest.grayscale0_dma.dma::total        20480                       # Packet count per connected master and slave (bytes)
system.acctest.local_bus.pkt_count_system.acctest.isp0_dma.dma::system.acctest.isp0_spm.port         2116                       # Packet count per connected master and slave (bytes)
system.acctest.local_bus.pkt_count_system.acctest.isp0_dma.dma::total         2116                       # Packet count per connected master and slave (bytes)
system.acctest.local_bus.pkt_count::total      1374688                       # Packet count per connected master and slave (bytes)
system.acctest.local_bus.pkt_size_system.acctest.mem2cls.master::system.acctest.canny_non_max0.pio           15                       # Cumulative packet size per connected master and slave (bytes)
system.acctest.local_bus.pkt_size_system.acctest.mem2cls.master::system.acctest.canny_non_max0_dma.pio           44                       # Cumulative packet size per connected master and slave (bytes)
system.acctest.local_bus.pkt_size_system.acctest.mem2cls.master::system.acctest.convolution0.pio          364                       # Cumulative packet size per connected master and slave (bytes)
system.acctest.local_bus.pkt_size_system.acctest.mem2cls.master::system.acctest.convolution0_dma.pio          638                       # Cumulative packet size per connected master and slave (bytes)
system.acctest.local_bus.pkt_size_system.acctest.mem2cls.master::system.acctest.edge_tracking0.pio           23                       # Cumulative packet size per connected master and slave (bytes)
system.acctest.local_bus.pkt_size_system.acctest.mem2cls.master::system.acctest.edge_tracking0_dma.pio           44                       # Cumulative packet size per connected master and slave (bytes)
system.acctest.local_bus.pkt_size_system.acctest.mem2cls.master::system.acctest.elem_matrix0.pio         2970                       # Cumulative packet size per connected master and slave (bytes)
system.acctest.local_bus.pkt_size_system.acctest.mem2cls.master::system.acctest.elem_matrix0_dma.pio         6138                       # Cumulative packet size per connected master and slave (bytes)
system.acctest.local_bus.pkt_size_system.acctest.mem2cls.master::system.acctest.grayscale0.pio           22                       # Cumulative packet size per connected master and slave (bytes)
system.acctest.local_bus.pkt_size_system.acctest.mem2cls.master::system.acctest.grayscale0_dma.pio           88                       # Cumulative packet size per connected master and slave (bytes)
system.acctest.local_bus.pkt_size_system.acctest.mem2cls.master::system.acctest.isp0.pio           30                       # Cumulative packet size per connected master and slave (bytes)
system.acctest.local_bus.pkt_size_system.acctest.mem2cls.master::system.acctest.isp0_dma.pio           44                       # Cumulative packet size per connected master and slave (bytes)
system.acctest.local_bus.pkt_size_system.acctest.mem2cls.master::total        10420                       # Cumulative packet size per connected master and slave (bytes)
system.acctest.local_bus.pkt_size_system.acctest.canny_non_max0_dma.dma::system.acctest.canny_non_max0_spm.port       131072                       # Cumulative packet size per connected master and slave (bytes)
system.acctest.local_bus.pkt_size_system.acctest.canny_non_max0_dma.dma::system.acctest.elem_matrix0_spm.port       131072                       # Cumulative packet size per connected master and slave (bytes)
system.acctest.local_bus.pkt_size_system.acctest.canny_non_max0_dma.dma::total       262144                       # Cumulative packet size per connected master and slave (bytes)
system.acctest.local_bus.pkt_size_system.acctest.convolution0_dma.dma::system.acctest.convolution0_spm.port      1049748                       # Cumulative packet size per connected master and slave (bytes)
system.acctest.local_bus.pkt_size_system.acctest.convolution0_dma.dma::system.acctest.elem_matrix0_spm.port       524288                       # Cumulative packet size per connected master and slave (bytes)
system.acctest.local_bus.pkt_size_system.acctest.convolution0_dma.dma::system.acctest.grayscale0_spm.port       131072                       # Cumulative packet size per connected master and slave (bytes)
system.acctest.local_bus.pkt_size_system.acctest.convolution0_dma.dma::total      1705108                       # Cumulative packet size per connected master and slave (bytes)
system.acctest.local_bus.pkt_size_system.acctest.edge_tracking0_dma.dma::system.acctest.canny_non_max0_spm.port        65536                       # Cumulative packet size per connected master and slave (bytes)
system.acctest.local_bus.pkt_size_system.acctest.edge_tracking0_dma.dma::system.acctest.edge_tracking0_spm.port        81920                       # Cumulative packet size per connected master and slave (bytes)
system.acctest.local_bus.pkt_size_system.acctest.edge_tracking0_dma.dma::total       147456                       # Cumulative packet size per connected master and slave (bytes)
system.acctest.local_bus.pkt_size_system.acctest.elem_matrix0_dma.dma::system.acctest.convolution0_spm.port       786432                       # Cumulative packet size per connected master and slave (bytes)
system.acctest.local_bus.pkt_size_system.acctest.elem_matrix0_dma.dma::system.acctest.elem_matrix0_spm.port     18284544                       # Cumulative packet size per connected master and slave (bytes)
system.acctest.local_bus.pkt_size_system.acctest.elem_matrix0_dma.dma::system.acctest.grayscale0_spm.port       327680                       # Cumulative packet size per connected master and slave (bytes)
system.acctest.local_bus.pkt_size_system.acctest.elem_matrix0_dma.dma::total     19398656                       # Cumulative packet size per connected master and slave (bytes)
system.acctest.local_bus.pkt_size_system.acctest.grayscale0_dma.dma::system.acctest.grayscale0_spm.port       229376                       # Cumulative packet size per connected master and slave (bytes)
system.acctest.local_bus.pkt_size_system.acctest.grayscale0_dma.dma::system.acctest.isp0_spm.port        98304                       # Cumulative packet size per connected master and slave (bytes)
system.acctest.local_bus.pkt_size_system.acctest.grayscale0_dma.dma::total       327680                       # Cumulative packet size per connected master and slave (bytes)
system.acctest.local_bus.pkt_size_system.acctest.isp0_dma.dma::system.acctest.isp0_spm.port        33800                       # Cumulative packet size per connected master and slave (bytes)
system.acctest.local_bus.pkt_size_system.acctest.isp0_dma.dma::total        33800                       # Cumulative packet size per connected master and slave (bytes)
system.acctest.local_bus.pkt_size::total     21885264                       # Cumulative packet size per connected master and slave (bytes)
system.acctest.local_bus.occupancy         2221919500                       # Network occupancy (ticks)
system.acctest.local_bus.utilization             11.8                       # Network utilization (%)
system.acctest.local_bus.numRequests          1520142                       # Number of requests
system.acctest.local_bus.averageQueuingDelay          803                       # Average queuing delay (ticks)
system.acctest.local_bus.tailQueuingDelay        11000                       # Tail queuing delay (ticks)
system.acctest.local_bus.averageQueueLength         0.06                       # Average queue length
system.acctest.local_bus.maxQueueLength             8                       # Max queue length
system.acctest.local_bus.reqLayer0.occupancy   1840782094                       # Layer occupancy (ticks)
system.acctest.local_bus.reqLayer0.utilization          9.8                       # Layer utilization (%)
system.acctest.local_bus.respLayer0.occupancy   1216240000                       # Layer occupancy (ticks)
system.acctest.local_bus.respLayer0.utilization          6.4                       # Layer utilization (%)
system.acctest.isp0.pwrStateResidencyTicks::UNDEFINED  24561757500                       # Cumulative time (in ticks) in various power states
system.acctest.edge_tracking0.pwrStateResidencyTicks::UNDEFINED  24561757500                       # Cumulative time (in ticks) in various power states
system.acctest.grayscale0_spm.pwrStateResidencyTicks::UNDEFINED  24561757500                       # Cumulative time (in ticks) in various power states
system.acctest.grayscale0_spm.bytes_read::.acctest.convolution0_dma       131072                       # Number of bytes read from this memory
system.acctest.grayscale0_spm.bytes_read::.acctest.elem_matrix0_dma       327680                       # Number of bytes read from this memory
system.acctest.grayscale0_spm.bytes_read::.acctest.grayscale0.system.acctest.grayscale0        98304                       # Number of bytes read from this memory
system.acctest.grayscale0_spm.bytes_read::.acctest.grayscale0_dma       131072                       # Number of bytes read from this memory
system.acctest.grayscale0_spm.bytes_read::total       688128                       # Number of bytes read from this memory
system.acctest.grayscale0_spm.bytes_written::.acctest.grayscale0.system.acctest.grayscale0       131072                       # Number of bytes written to this memory
system.acctest.grayscale0_spm.bytes_written::.acctest.grayscale0_dma        98304                       # Number of bytes written to this memory
system.acctest.grayscale0_spm.bytes_written::total       229376                       # Number of bytes written to this memory
system.acctest.grayscale0_spm.num_reads::.acctest.convolution0_dma         4096                       # Number of read requests responded to by this memory
system.acctest.grayscale0_spm.num_reads::.acctest.elem_matrix0_dma        10240                       # Number of read requests responded to by this memory
system.acctest.grayscale0_spm.num_reads::.acctest.grayscale0.system.acctest.grayscale0        98304                       # Number of read requests responded to by this memory
system.acctest.grayscale0_spm.num_reads::.acctest.grayscale0_dma         4096                       # Number of read requests responded to by this memory
system.acctest.grayscale0_spm.num_reads::total       116736                       # Number of read requests responded to by this memory
system.acctest.grayscale0_spm.num_writes::.acctest.grayscale0.system.acctest.grayscale0        32768                       # Number of write requests responded to by this memory
system.acctest.grayscale0_spm.num_writes::.acctest.grayscale0_dma         3072                       # Number of write requests responded to by this memory
system.acctest.grayscale0_spm.num_writes::total        35840                       # Number of write requests responded to by this memory
system.acctest.grayscale0_spm.bw_read::.acctest.convolution0_dma      6944466                       # Total read bandwidth from this memory (bytes/s)
system.acctest.grayscale0_spm.bw_read::.acctest.elem_matrix0_dma     17361164                       # Total read bandwidth from this memory (bytes/s)
system.acctest.grayscale0_spm.bw_read::.acctest.grayscale0.system.acctest.grayscale0      5208349                       # Total read bandwidth from this memory (bytes/s)
system.acctest.grayscale0_spm.bw_read::.acctest.grayscale0_dma      6944466                       # Total read bandwidth from this memory (bytes/s)
system.acctest.grayscale0_spm.bw_read::total     36458445                       # Total read bandwidth from this memory (bytes/s)
system.acctest.grayscale0_spm.bw_write::.acctest.grayscale0.system.acctest.grayscale0      6944466                       # Write bandwidth from this memory (bytes/s)
system.acctest.grayscale0_spm.bw_write::.acctest.grayscale0_dma      5208349                       # Write bandwidth from this memory (bytes/s)
system.acctest.grayscale0_spm.bw_write::total     12152815                       # Write bandwidth from this memory (bytes/s)
system.acctest.grayscale0_spm.bw_total::.acctest.convolution0_dma      6944466                       # Total bandwidth to/from this memory (bytes/s)
system.acctest.grayscale0_spm.bw_total::.acctest.elem_matrix0_dma     17361164                       # Total bandwidth to/from this memory (bytes/s)
system.acctest.grayscale0_spm.bw_total::.acctest.grayscale0.system.acctest.grayscale0     12152815                       # Total bandwidth to/from this memory (bytes/s)
system.acctest.grayscale0_spm.bw_total::.acctest.grayscale0_dma     12152815                       # Total bandwidth to/from this memory (bytes/s)
system.acctest.grayscale0_spm.bw_total::total     48611260                       # Total bandwidth to/from this memory (bytes/s)
system.acctest.elem_matrix1_dma.pwrStateResidencyTicks::UNDEFINED  24561757500                       # Cumulative time (in ticks) in various power states
system.acctest.mem2cls.pwrStateResidencyTicks::UNDEFINED  24561757500                       # Cumulative time (in ticks) in various power states
system.acctest.isp0_dma.pwrStateResidencyTicks::UNDEFINED  24561757500                       # Cumulative time (in ticks) in various power states
system.acctest.grayscale0_dma.pwrStateResidencyTicks::UNDEFINED  24561757500                       # Cumulative time (in ticks) in various power states
system.acctest.convolution0.pwrStateResidencyTicks::UNDEFINED  24561757500                       # Cumulative time (in ticks) in various power states
system.acctest.convolution1.pwrStateResidencyTicks::UNDEFINED  24561757500                       # Cumulative time (in ticks) in various power states
system.acctest.isp0_spm.pwrStateResidencyTicks::UNDEFINED  24561757500                       # Cumulative time (in ticks) in various power states
system.acctest.isp0_spm.bytes_read::.acctest.grayscale0_dma        98304                       # Number of bytes read from this memory
system.acctest.isp0_spm.bytes_read::.acctest.isp0.system.acctest.isp0       229376                       # Number of bytes read from this memory
system.acctest.isp0_spm.bytes_read::total       327680                       # Number of bytes read from this memory
system.acctest.isp0_spm.bytes_written::.acctest.isp0.system.acctest.isp0        98304                       # Number of bytes written to this memory
system.acctest.isp0_spm.bytes_written::.acctest.isp0_dma        33800                       # Number of bytes written to this memory
system.acctest.isp0_spm.bytes_written::total       132104                       # Number of bytes written to this memory
system.acctest.isp0_spm.num_reads::.acctest.grayscale0_dma         3072                       # Number of read requests responded to by this memory
system.acctest.isp0_spm.num_reads::.acctest.isp0.system.acctest.isp0       229376                       # Number of read requests responded to by this memory
system.acctest.isp0_spm.num_reads::total       232448                       # Number of read requests responded to by this memory
system.acctest.isp0_spm.num_writes::.acctest.isp0.system.acctest.isp0        98304                       # Number of write requests responded to by this memory
system.acctest.isp0_spm.num_writes::.acctest.isp0_dma         1058                       # Number of write requests responded to by this memory
system.acctest.isp0_spm.num_writes::total        99362                       # Number of write requests responded to by this memory
system.acctest.isp0_spm.bw_read::.acctest.grayscale0_dma      5208349                       # Total read bandwidth from this memory (bytes/s)
system.acctest.isp0_spm.bw_read::.acctest.isp0.system.acctest.isp0     12152815                       # Total read bandwidth from this memory (bytes/s)
system.acctest.isp0_spm.bw_read::total       17361164                       # Total read bandwidth from this memory (bytes/s)
system.acctest.isp0_spm.bw_write::.acctest.isp0.system.acctest.isp0      5208349                       # Write bandwidth from this memory (bytes/s)
system.acctest.isp0_spm.bw_write::.acctest.isp0_dma      1790794                       # Write bandwidth from this memory (bytes/s)
system.acctest.isp0_spm.bw_write::total       6999143                       # Write bandwidth from this memory (bytes/s)
system.acctest.isp0_spm.bw_total::.acctest.grayscale0_dma      5208349                       # Total bandwidth to/from this memory (bytes/s)
system.acctest.isp0_spm.bw_total::.acctest.isp0.system.acctest.isp0     17361164                       # Total bandwidth to/from this memory (bytes/s)
system.acctest.isp0_spm.bw_total::.acctest.isp0_dma      1790794                       # Total bandwidth to/from this memory (bytes/s)
system.acctest.isp0_spm.bw_total::total      24360308                       # Total bandwidth to/from this memory (bytes/s)
system.acctest.coherency_bus.pwrStateResidencyTicks::UNDEFINED  24561757500                       # Cumulative time (in ticks) in various power states
system.acctest.coherency_bus.trans_dist::ReadReq       177706                       # Transaction distribution
system.acctest.coherency_bus.trans_dist::ReadResp       177706                       # Transaction distribution
system.acctest.coherency_bus.trans_dist::WriteReq        99584                       # Transaction distribution
system.acctest.coherency_bus.trans_dist::WriteResp        99584                       # Transaction distribution
system.acctest.coherency_bus.pkt_count_system.acctest.convolution0_dma.dma::system.membus.slave[7]        12336                       # Packet count per connected master and slave (bytes)
system.acctest.coherency_bus.pkt_count_system.acctest.edge_tracking0_dma.dma::system.membus.slave[7]          512                       # Packet count per connected master and slave (bytes)
system.acctest.coherency_bus.pkt_count_system.acctest.elem_matrix0_dma.dma::system.membus.slave[7]       536576                       # Packet count per connected master and slave (bytes)
system.acctest.coherency_bus.pkt_count_system.acctest.grayscale0_dma.dma::system.membus.slave[7]         4096                       # Packet count per connected master and slave (bytes)
system.acctest.coherency_bus.pkt_count_system.acctest.isp0_dma.dma::system.membus.slave[7]         1060                       # Packet count per connected master and slave (bytes)
system.acctest.coherency_bus.pkt_count::total       554580                       # Packet count per connected master and slave (bytes)
system.acctest.coherency_bus.pkt_size_system.acctest.convolution0_dma.dma::system.membus.slave[7]       394388                       # Cumulative packet size per connected master and slave (bytes)
system.acctest.coherency_bus.pkt_size_system.acctest.edge_tracking0_dma.dma::system.membus.slave[7]        16384                       # Cumulative packet size per connected master and slave (bytes)
system.acctest.coherency_bus.pkt_size_system.acctest.elem_matrix0_dma.dma::system.membus.slave[7]     17170432                       # Cumulative packet size per connected master and slave (bytes)
system.acctest.coherency_bus.pkt_size_system.acctest.grayscale0_dma.dma::system.membus.slave[7]       131072                       # Cumulative packet size per connected master and slave (bytes)
system.acctest.coherency_bus.pkt_size_system.acctest.isp0_dma.dma::system.membus.slave[7]        33800                       # Cumulative packet size per connected master and slave (bytes)
system.acctest.coherency_bus.pkt_size::total     17746076                       # Cumulative packet size per connected master and slave (bytes)
system.acctest.coherency_bus.snoops                 0                       # Total snoops (count)
system.acctest.coherency_bus.snoopTraffic            0                       # Total snoop traffic (bytes)
system.acctest.coherency_bus.snoop_fanout::samples       339184                       # Request fanout histogram
system.acctest.coherency_bus.snoop_fanout::mean            0                       # Request fanout histogram
system.acctest.coherency_bus.snoop_fanout::stdev            0                       # Request fanout histogram
system.acctest.coherency_bus.snoop_fanout::underflows            0      0.00%      0.00% # Request fanout histogram
system.acctest.coherency_bus.snoop_fanout::0       339184    100.00%    100.00% # Request fanout histogram
system.acctest.coherency_bus.snoop_fanout::overflows            0      0.00%    100.00% # Request fanout histogram
system.acctest.coherency_bus.snoop_fanout::min_value            0                       # Request fanout histogram
system.acctest.coherency_bus.snoop_fanout::max_value            0                       # Request fanout histogram
system.acctest.coherency_bus.snoop_fanout::total       339184                       # Request fanout histogram
system.acctest.coherency_bus.reqLayer0.occupancy    811881385                       # Layer occupancy (ticks)
system.acctest.coherency_bus.reqLayer0.utilization          4.3                       # Layer utilization (%)
system.acctest.coherency_bus.respLayer0.occupancy    988095000                       # Layer occupancy (ticks)
system.acctest.coherency_bus.respLayer0.utilization          5.2                       # Layer utilization (%)
system.acctest.convolution0_spm.pwrStateResidencyTicks::UNDEFINED  24561757500                       # Cumulative time (in ticks) in various power states
system.acctest.convolution0_spm.bytes_read::.acctest.convolution0.system.acctest.convolution0     37706912                       # Number of bytes read from this memory
system.acctest.convolution0_spm.bytes_read::.acctest.convolution0_dma       262144                       # Number of bytes read from this memory
system.acctest.convolution0_spm.bytes_read::.acctest.elem_matrix0_dma       786432                       # Number of bytes read from this memory
system.acctest.convolution0_spm.bytes_read::total     38755488                       # Number of bytes read from this memory
system.acctest.convolution0_spm.bytes_written::.acctest.convolution0.system.acctest.convolution0       851968                       # Number of bytes written to this memory
system.acctest.convolution0_spm.bytes_written::.acctest.convolution0_dma       787604                       # Number of bytes written to this memory
system.acctest.convolution0_spm.bytes_written::total      1639572                       # Number of bytes written to this memory
system.acctest.convolution0_spm.num_reads::.acctest.convolution0.system.acctest.convolution0      9426728                       # Number of read requests responded to by this memory
system.acctest.convolution0_spm.num_reads::.acctest.convolution0_dma         8192                       # Number of read requests responded to by this memory
system.acctest.convolution0_spm.num_reads::.acctest.elem_matrix0_dma        24576                       # Number of read requests responded to by this memory
system.acctest.convolution0_spm.num_reads::total      9459496                       # Number of read requests responded to by this memory
system.acctest.convolution0_spm.num_writes::.acctest.convolution0.system.acctest.convolution0       212992                       # Number of write requests responded to by this memory
system.acctest.convolution0_spm.num_writes::.acctest.convolution0_dma        24624                       # Number of write requests responded to by this memory
system.acctest.convolution0_spm.num_writes::total       237616                       # Number of write requests responded to by this memory
system.acctest.convolution0_spm.bw_read::.acctest.convolution0.system.acctest.convolution0   1997790224                       # Total read bandwidth from this memory (bytes/s)
system.acctest.convolution0_spm.bw_read::.acctest.convolution0_dma     13888932                       # Total read bandwidth from this memory (bytes/s)
system.acctest.convolution0_spm.bw_read::.acctest.elem_matrix0_dma     41666795                       # Total read bandwidth from this memory (bytes/s)
system.acctest.convolution0_spm.bw_read::total   2053345950                       # Total read bandwidth from this memory (bytes/s)
system.acctest.convolution0_spm.bw_write::.acctest.convolution0.system.acctest.convolution0     45139028                       # Write bandwidth from this memory (bytes/s)
system.acctest.convolution0_spm.bw_write::.acctest.convolution0_dma     41728890                       # Write bandwidth from this memory (bytes/s)
system.acctest.convolution0_spm.bw_write::total     86867917                       # Write bandwidth from this memory (bytes/s)
system.acctest.convolution0_spm.bw_total::.acctest.convolution0.system.acctest.convolution0   2042929251                       # Total bandwidth to/from this memory (bytes/s)
system.acctest.convolution0_spm.bw_total::.acctest.convolution0_dma     55617821                       # Total bandwidth to/from this memory (bytes/s)
system.acctest.convolution0_spm.bw_total::.acctest.elem_matrix0_dma     41666795                       # Total bandwidth to/from this memory (bytes/s)
system.acctest.convolution0_spm.bw_total::total   2140213867                       # Total bandwidth to/from this memory (bytes/s)
system.acctest.elem_matrix0_dma.pwrStateResidencyTicks::UNDEFINED  24561757500                       # Cumulative time (in ticks) in various power states
system.acctest.grayscale0.pwrStateResidencyTicks::UNDEFINED  24561757500                       # Cumulative time (in ticks) in various power states
system.acctest.canny_non_max0.pwrStateResidencyTicks::UNDEFINED  24561757500                       # Cumulative time (in ticks) in various power states
system.acctest.elem_matrix0_spm.pwrStateResidencyTicks::UNDEFINED  24561757500                       # Cumulative time (in ticks) in various power states
system.acctest.elem_matrix0_spm.bytes_read::.acctest.canny_non_max0_dma       131072                       # Number of bytes read from this memory
system.acctest.elem_matrix0_spm.bytes_read::.acctest.convolution0_dma       524288                       # Number of bytes read from this memory
system.acctest.elem_matrix0_spm.bytes_read::.acctest.elem_matrix0.system.acctest.elem_matrix0     15925248                       # Number of bytes read from this memory
system.acctest.elem_matrix0_spm.bytes_read::.acctest.elem_matrix0_dma      5963776                       # Number of bytes read from this memory
system.acctest.elem_matrix0_spm.bytes_read::total     22544384                       # Number of bytes read from this memory
system.acctest.elem_matrix0_spm.bytes_written::.acctest.elem_matrix0.system.acctest.elem_matrix0      8847360                       # Number of bytes written to this memory
system.acctest.elem_matrix0_spm.bytes_written::.acctest.elem_matrix0_dma     12320768                       # Number of bytes written to this memory
system.acctest.elem_matrix0_spm.bytes_written::total     21168128                       # Number of bytes written to this memory
system.acctest.elem_matrix0_spm.num_reads::.acctest.canny_non_max0_dma         4096                       # Number of read requests responded to by this memory
system.acctest.elem_matrix0_spm.num_reads::.acctest.convolution0_dma        16384                       # Number of read requests responded to by this memory
system.acctest.elem_matrix0_spm.num_reads::.acctest.elem_matrix0.system.acctest.elem_matrix0      3981312                       # Number of read requests responded to by this memory
system.acctest.elem_matrix0_spm.num_reads::.acctest.elem_matrix0_dma       186368                       # Number of read requests responded to by this memory
system.acctest.elem_matrix0_spm.num_reads::total      4188160                       # Number of read requests responded to by this memory
system.acctest.elem_matrix0_spm.num_writes::.acctest.elem_matrix0.system.acctest.elem_matrix0      2211840                       # Number of write requests responded to by this memory
system.acctest.elem_matrix0_spm.num_writes::.acctest.elem_matrix0_dma       385024                       # Number of write requests responded to by this memory
system.acctest.elem_matrix0_spm.num_writes::total      2596864                       # Number of write requests responded to by this memory
system.acctest.elem_matrix0_spm.bw_read::.acctest.canny_non_max0_dma      6944466                       # Total read bandwidth from this memory (bytes/s)
system.acctest.elem_matrix0_spm.bw_read::.acctest.convolution0_dma     27777863                       # Total read bandwidth from this memory (bytes/s)
system.acctest.elem_matrix0_spm.bw_read::.acctest.elem_matrix0.system.acctest.elem_matrix0    843752593                       # Total read bandwidth from this memory (bytes/s)
system.acctest.elem_matrix0_spm.bw_read::.acctest.elem_matrix0_dma    315973193                       # Total read bandwidth from this memory (bytes/s)
system.acctest.elem_matrix0_spm.bw_read::total   1194448115                       # Total read bandwidth from this memory (bytes/s)
system.acctest.elem_matrix0_spm.bw_write::.acctest.elem_matrix0.system.acctest.elem_matrix0    468751440                       # Write bandwidth from this memory (bytes/s)
system.acctest.elem_matrix0_spm.bw_write::.acctest.elem_matrix0_dma    652779784                       # Write bandwidth from this memory (bytes/s)
system.acctest.elem_matrix0_spm.bw_write::total   1121531224                       # Write bandwidth from this memory (bytes/s)
system.acctest.elem_matrix0_spm.bw_total::.acctest.canny_non_max0_dma      6944466                       # Total bandwidth to/from this memory (bytes/s)
system.acctest.elem_matrix0_spm.bw_total::.acctest.convolution0_dma     27777863                       # Total bandwidth to/from this memory (bytes/s)
system.acctest.elem_matrix0_spm.bw_total::.acctest.elem_matrix0.system.acctest.elem_matrix0   1312504033                       # Total bandwidth to/from this memory (bytes/s)
system.acctest.elem_matrix0_spm.bw_total::.acctest.elem_matrix0_dma    968752977                       # Total bandwidth to/from this memory (bytes/s)
system.acctest.elem_matrix0_spm.bw_total::total   2315979339                       # Total bandwidth to/from this memory (bytes/s)
system.acctest.convolution0_dma.pwrStateResidencyTicks::UNDEFINED  24561757500                       # Cumulative time (in ticks) in various power states
system.acctest.convolution1_spm.pwrStateResidencyTicks::UNDEFINED  24561757500                       # Cumulative time (in ticks) in various power states
system.acctest.elem_matrix3_dma.pwrStateResidencyTicks::UNDEFINED  24561757500                       # Cumulative time (in ticks) in various power states
system.acctest.edge_tracking0_spm.pwrStateResidencyTicks::UNDEFINED  24561757500                       # Cumulative time (in ticks) in various power states
system.acctest.edge_tracking0_spm.bytes_read::.acctest.edge_tracking0.system.acctest.edge_tracking0       194576                       # Number of bytes read from this memory
system.acctest.edge_tracking0_spm.bytes_read::.acctest.edge_tracking0_dma        16384                       # Number of bytes read from this memory
system.acctest.edge_tracking0_spm.bytes_read::total       210960                       # Number of bytes read from this memory
system.acctest.edge_tracking0_spm.bytes_written::.acctest.edge_tracking0.system.acctest.edge_tracking0        81920                       # Number of bytes written to this memory
system.acctest.edge_tracking0_spm.bytes_written::.acctest.edge_tracking0_dma        65536                       # Number of bytes written to this memory
system.acctest.edge_tracking0_spm.bytes_written::total       147456                       # Number of bytes written to this memory
system.acctest.edge_tracking0_spm.num_reads::.acctest.edge_tracking0.system.acctest.edge_tracking0        48644                       # Number of read requests responded to by this memory
system.acctest.edge_tracking0_spm.num_reads::.acctest.edge_tracking0_dma          512                       # Number of read requests responded to by this memory
system.acctest.edge_tracking0_spm.num_reads::total        49156                       # Number of read requests responded to by this memory
system.acctest.edge_tracking0_spm.num_writes::.acctest.edge_tracking0.system.acctest.edge_tracking0        32768                       # Number of write requests responded to by this memory
system.acctest.edge_tracking0_spm.num_writes::.acctest.edge_tracking0_dma         2048                       # Number of write requests responded to by this memory
system.acctest.edge_tracking0_spm.num_writes::total        34816                       # Number of write requests responded to by this memory
system.acctest.edge_tracking0_spm.bw_read::.acctest.edge_tracking0.system.acctest.edge_tracking0     10309039                       # Total read bandwidth from this memory (bytes/s)
system.acctest.edge_tracking0_spm.bw_read::.acctest.edge_tracking0_dma       868058                       # Total read bandwidth from this memory (bytes/s)
system.acctest.edge_tracking0_spm.bw_read::total     11177097                       # Total read bandwidth from this memory (bytes/s)
system.acctest.edge_tracking0_spm.bw_write::.acctest.edge_tracking0.system.acctest.edge_tracking0      4340291                       # Write bandwidth from this memory (bytes/s)
system.acctest.edge_tracking0_spm.bw_write::.acctest.edge_tracking0_dma      3472233                       # Write bandwidth from this memory (bytes/s)
system.acctest.edge_tracking0_spm.bw_write::total      7812524                       # Write bandwidth from this memory (bytes/s)
system.acctest.edge_tracking0_spm.bw_total::.acctest.edge_tracking0.system.acctest.edge_tracking0     14649330                       # Total bandwidth to/from this memory (bytes/s)
system.acctest.edge_tracking0_spm.bw_total::.acctest.edge_tracking0_dma      4340291                       # Total bandwidth to/from this memory (bytes/s)
system.acctest.edge_tracking0_spm.bw_total::total     18989621                       # Total bandwidth to/from this memory (bytes/s)
system.acctest.canny_non_max0_spm.pwrStateResidencyTicks::UNDEFINED  24561757500                       # Cumulative time (in ticks) in various power states
system.acctest.canny_non_max0_spm.bytes_read::.acctest.canny_non_max0.system.acctest.canny_non_max0       254016                       # Number of bytes read from this memory
system.acctest.canny_non_max0_spm.bytes_read::.acctest.edge_tracking0_dma        65536                       # Number of bytes read from this memory
system.acctest.canny_non_max0_spm.bytes_read::total       319552                       # Number of bytes read from this memory
system.acctest.canny_non_max0_spm.bytes_written::.acctest.canny_non_max0.system.acctest.canny_non_max0        65536                       # Number of bytes written to this memory
system.acctest.canny_non_max0_spm.bytes_written::.acctest.canny_non_max0_dma       131072                       # Number of bytes written to this memory
system.acctest.canny_non_max0_spm.bytes_written::total       196608                       # Number of bytes written to this memory
system.acctest.canny_non_max0_spm.num_reads::.acctest.canny_non_max0.system.acctest.canny_non_max0        63504                       # Number of read requests responded to by this memory
system.acctest.canny_non_max0_spm.num_reads::.acctest.edge_tracking0_dma         2048                       # Number of read requests responded to by this memory
[...]
system.cpu.icache.ReadReq_misses::.cpu.inst          269                       # number of ReadReq misses
system.cpu.icache.ReadReq_misses::total           269                       # number of ReadReq misses
system.cpu.icache.ReadReq_miss_latency::.cpu.inst     11685000                       # number of ReadReq miss cycles
system.cpu.icache.ReadReq_miss_latency::total     11685000                       # number of ReadReq miss cycles
system.cpu.icache.ReadReq_accesses::.cpu.inst       124919                       # number of ReadReq accesses(hits+misses)
system.cpu.icache.ReadReq_accesses::total       124919                       # number of ReadReq accesses(hits+misses)
system.cpu.icache.ReadReq_miss_rate::.cpu.inst     0.002153                       # miss rate for ReadReq accesses
system.cpu.icache.ReadReq_miss_rate::total     0.002153                       # miss rate for ReadReq accesses
system.cpu.icache.ReadReq_avg_miss_latency::.cpu.inst 43438.661710                       # average ReadReq miss latency
system.cpu.icache.ReadReq_avg_miss_latency::total 43438.661710                       # average ReadReq miss latency
system.cpu.icache.ReadReq_mshr_misses::.cpu.inst          269                       # number of ReadReq MSHR misses
system.cpu.icache.ReadReq_mshr_misses::total          269                       # number of ReadReq MSHR misses
system.cpu.icache.ReadReq_mshr_miss_latency::.cpu.inst     11260375                       # number of ReadReq MSHR miss cycles
system.cpu.icache.ReadReq_mshr_miss_latency::total     11260375                       # number of ReadReq MSHR miss cycles
system.cpu.icache.ReadReq_mshr_miss_rate::.cpu.inst     0.002153                       # mshr miss rate for ReadReq accesses
system.cpu.icache.ReadReq_mshr_miss_rate::total     0.002153                       # mshr miss rate for ReadReq accesses
system.cpu.icache.ReadReq_avg_mshr_miss_latency::.cpu.inst 41860.130112                       # average ReadReq mshr miss latency
system.cpu.icache.ReadReq_avg_mshr_miss_latency::total 41860.130112                       # average ReadReq mshr miss latency
system.cpu.icache.tags.pwrStateResidencyTicks::UNDEFINED  24562454375                       # Cumulative time (in ticks) in various power states
system.cpu.icache.tags.tagsinuse           408.688943                       # Cycle average of tags in use
system.cpu.icache.tags.total_refs             2207518                       # Total number of references to valid blocks.
system.cpu.icache.tags.sampled_refs               507                       # Sample count of references to valid blocks.
system.cpu.icache.tags.avg_refs           4354.078895                       # Average number of references to valid blocks.
system.cpu.icache.tags.warmup_cycle                 0                       # Cycle when the warmup percentage was hit.
system.cpu.icache.tags.occ_blocks::.cpu.inst   408.688943                       # Average occupied blocks per requestor
system.cpu.icache.tags.occ_percent::.cpu.inst     0.798221                       # Average percentage of cache occupancy
system.cpu.icache.tags.occ_percent::total     0.798221                       # Average percentage of cache occupancy
system.cpu.icache.tags.occ_task_id_blocks::1024          422                       # Occupied blocks per task id
system.cpu.icache.tags.age_task_id_blocks_1024::0            4                       # Occupied blocks per task id
system.cpu.icache.tags.age_task_id_blocks_1024::4          418                       # Occupied blocks per task id
system.cpu.icache.tags.occ_task_id_percent::1024     0.824219                       # Percentage of cache occupancy per task id
system.cpu.icache.tags.tag_accesses            250107                       # Number of tag accesses
system.cpu.icache.tags.data_accesses           250107                       # Number of data accesses
system.cpu.dtb.walker.pwrStateResidencyTicks::UNDEFINED  24562454375                       # Cumulative time (in ticks) in various power states
system.cpu.dtb.stage2_mmu.stage2_tlb.walker.pwrStateResidencyTicks::UNDEFINED  24562454375                       # Cumulative time (in ticks) in various power states
system.cpu.dcache.pwrStateResidencyTicks::UNDEFINED  24562454375                       # Cumulative time (in ticks) in various power states
system.cpu.dcache.demand_hits::.cpu.data       143340                       # number of demand (read+write) hits
system.cpu.dcache.demand_hits::total           143340                       # number of demand (read+write) hits
system.cpu.dcache.overall_hits::.cpu.data       143340                       # number of overall hits
system.cpu.dcache.overall_hits::total          143340                       # number of overall hits
system.cpu.dcache.demand_misses::.cpu.data          525                       # number of demand (read+write) misses
system.cpu.dcache.demand_misses::total            525                       # number of demand (read+write) misses
system.cpu.dcache.overall_misses::.cpu.data          525                       # number of overall misses
system.cpu.dcache.overall_misses::total           525                       # number of overall misses
system.cpu.dcache.demand_miss_latency::.cpu.data     40915500                       # number of demand (read+write) miss cycles
system.cpu.dcache.demand_miss_latency::total     40915500                       # number of demand (read+write) miss cycles
system.cpu.dcache.overall_miss_latency::.cpu.data     40915500                       # number of overall miss cycles
system.cpu.dcache.overall_miss_latency::total     40915500                       # number of overall miss cycles
system.cpu.dcache.demand_accesses::.cpu.data       143865                       # number of demand (read+write) accesses
system.cpu.dcache.demand_accesses::total       143865                       # number of demand (read+write) accesses
system.cpu.dcache.overall_accesses::.cpu.data       143865                       # number of overall (read+write) accesses
system.cpu.dcache.overall_accesses::total       143865                       # number of overall (read+write) accesses
system.cpu.dcache.demand_miss_rate::.cpu.data     0.003649                       # miss rate for demand accesses
system.cpu.dcache.demand_miss_rate::total     0.003649                       # miss rate for demand accesses
system.cpu.dcache.overall_miss_rate::.cpu.data     0.003649                       # miss rate for overall accesses
system.cpu.dcache.overall_miss_rate::total     0.003649                       # miss rate for overall accesses
system.cpu.dcache.demand_avg_miss_latency::.cpu.data 77934.285714                       # average overall miss latency
system.cpu.dcache.demand_avg_miss_latency::total 77934.285714                       # average overall miss latency
system.cpu.dcache.overall_avg_miss_latency::.cpu.data 77934.285714                       # average overall miss latency
system.cpu.dcache.overall_avg_miss_latency::total 77934.285714                       # average overall miss latency
system.cpu.dcache.blocked_cycles::no_mshrs            0                       # number of cycles access was blocked
system.cpu.dcache.blocked_cycles::no_targets            0                       # number of cycles access was blocked
system.cpu.dcache.blocked::no_mshrs                 0                       # number of cycles access was blocked
system.cpu.dcache.blocked::no_targets               0                       # number of cycles access was blocked
system.cpu.dcache.avg_blocked_cycles::no_mshrs          nan                       # average number of cycles each access was blocked
system.cpu.dcache.avg_blocked_cycles::no_targets          nan                       # average number of cycles each access was blocked
system.cpu.dcache.writebacks::.writebacks          174                       # number of writebacks
system.cpu.dcache.writebacks::total               174                       # number of writebacks
system.cpu.dcache.demand_mshr_hits::.cpu.data          107                       # number of demand (read+write) MSHR hits
system.cpu.dcache.demand_mshr_hits::total          107                       # number of demand (read+write) MSHR hits
system.cpu.dcache.overall_mshr_hits::.cpu.data          107                       # number of overall MSHR hits
system.cpu.dcache.overall_mshr_hits::total          107                       # number of overall MSHR hits
system.cpu.dcache.demand_mshr_misses::.cpu.data          418                       # number of demand (read+write) MSHR misses
system.cpu.dcache.demand_mshr_misses::total          418                       # number of demand (read+write) MSHR misses
system.cpu.dcache.overall_mshr_misses::.cpu.data          418                       # number of overall MSHR misses
system.cpu.dcache.overall_mshr_misses::total          418                       # number of overall MSHR misses
system.cpu.dcache.overall_mshr_uncacheable_misses::.cpu.data         4686                       # number of overall MSHR uncacheable misses
system.cpu.dcache.overall_mshr_uncacheable_misses::total         4686                       # number of overall MSHR uncacheable misses
system.cpu.dcache.demand_mshr_miss_latency::.cpu.data     31677750                       # number of demand (read+write) MSHR miss cycles
system.cpu.dcache.demand_mshr_miss_latency::total     31677750                       # number of demand (read+write) MSHR miss cycles
system.cpu.dcache.overall_mshr_miss_latency::.cpu.data     31677750                       # number of overall MSHR miss cycles
system.cpu.dcache.overall_mshr_miss_latency::total     31677750                       # number of overall MSHR miss cycles
system.cpu.dcache.overall_mshr_uncacheable_latency::.cpu.data     10249375                       # number of overall MSHR uncacheable cycles
system.cpu.dcache.overall_mshr_uncacheable_latency::total     10249375                       # number of overall MSHR uncacheable cycles
system.cpu.dcache.demand_mshr_miss_rate::.cpu.data     0.002906                       # mshr miss rate for demand accesses
system.cpu.dcache.demand_mshr_miss_rate::total     0.002906                       # mshr miss rate for demand accesses
system.cpu.dcache.overall_mshr_miss_rate::.cpu.data     0.002906                       # mshr miss rate for overall accesses
system.cpu.dcache.overall_mshr_miss_rate::total     0.002906                       # mshr miss rate for overall accesses
system.cpu.dcache.demand_avg_mshr_miss_latency::.cpu.data 75784.090909                       # average overall mshr miss latency
system.cpu.dcache.demand_avg_mshr_miss_latency::total 75784.090909                       # average overall mshr miss latency
system.cpu.dcache.overall_avg_mshr_miss_latency::.cpu.data 75784.090909                       # average overall mshr miss latency
system.cpu.dcache.overall_avg_mshr_miss_latency::total 75784.090909                       # average overall mshr miss latency
system.cpu.dcache.overall_avg_mshr_uncacheable_latency::.cpu.data  2187.233248                       # average overall mshr uncacheable latency
system.cpu.dcache.overall_avg_mshr_uncacheable_latency::total  2187.233248                       # average overall mshr uncacheable latency
system.cpu.dcache.replacements                    314                       # number of replacements
system.cpu.dcache.ReadReq_hits::.cpu.data        90579                       # number of ReadReq hits
system.cpu.dcache.ReadReq_hits::total           90579                       # number of ReadReq hits
system.cpu.dcache.ReadReq_misses::.cpu.data          286                       # number of ReadReq misses
system.cpu.dcache.ReadReq_misses::total           286                       # number of ReadReq misses
system.cpu.dcache.ReadReq_miss_latency::.cpu.data     21119625                       # number of ReadReq miss cycles
system.cpu.dcache.ReadReq_miss_latency::total     21119625                       # number of ReadReq miss cycles
system.cpu.dcache.ReadReq_accesses::.cpu.data        90865                       # number of ReadReq accesses(hits+misses)
system.cpu.dcache.ReadReq_accesses::total        90865                       # number of ReadReq accesses(hits+misses)
system.cpu.dcache.ReadReq_miss_rate::.cpu.data     0.003148                       # miss rate for ReadReq accesses
system.cpu.dcache.ReadReq_miss_rate::total     0.003148                       # miss rate for ReadReq accesses
system.cpu.dcache.ReadReq_avg_miss_latency::.cpu.data 73844.842657                       # average ReadReq miss latency
system.cpu.dcache.ReadReq_avg_miss_latency::total 73844.842657                       # average ReadReq miss latency
system.cpu.dcache.ReadReq_mshr_hits::.cpu.data            1                       # number of ReadReq MSHR hits
system.cpu.dcache.ReadReq_mshr_hits::total            1                       # number of ReadReq MSHR hits
system.cpu.dcache.ReadReq_mshr_misses::.cpu.data          285                       # number of ReadReq MSHR misses
system.cpu.dcache.ReadReq_mshr_misses::total          285                       # number of ReadReq MSHR misses
system.cpu.dcache.ReadReq_mshr_uncacheable::.cpu.data          472                       # number of ReadReq MSHR uncacheable
system.cpu.dcache.ReadReq_mshr_uncacheable::total          472                       # number of ReadReq MSHR uncacheable
system.cpu.dcache.ReadReq_mshr_miss_latency::.cpu.data     20650125                       # number of ReadReq MSHR miss cycles
system.cpu.dcache.ReadReq_mshr_miss_latency::total     20650125                       # number of ReadReq MSHR miss cycles
system.cpu.dcache.ReadReq_mshr_uncacheable_latency::.cpu.data     10249375                       # number of ReadReq MSHR uncacheable cycles
system.cpu.dcache.ReadReq_mshr_uncacheable_latency::total     10249375                       # number of ReadReq MSHR uncacheable cycles
system.cpu.dcache.ReadReq_mshr_miss_rate::.cpu.data     0.003137                       # mshr miss rate for ReadReq accesses
system.cpu.dcache.ReadReq_mshr_miss_rate::total     0.003137                       # mshr miss rate for ReadReq accesses
system.cpu.dcache.ReadReq_avg_mshr_miss_latency::.cpu.data 72456.578947                       # average ReadReq mshr miss latency
system.cpu.dcache.ReadReq_avg_mshr_miss_latency::total 72456.578947                       # average ReadReq mshr miss latency
system.cpu.dcache.ReadReq_avg_mshr_uncacheable_latency::.cpu.data 21714.777542                       # average ReadReq mshr uncacheable latency
system.cpu.dcache.ReadReq_avg_mshr_uncacheable_latency::total 21714.777542                       # average ReadReq mshr uncacheable latency
system.cpu.dcache.WriteReq_hits::.cpu.data        52761                       # number of WriteReq hits
system.cpu.dcache.WriteReq_hits::total          52761                       # number of WriteReq hits
system.cpu.dcache.WriteReq_misses::.cpu.data          239                       # number of WriteReq misses
system.cpu.dcache.WriteReq_misses::total          239                       # number of WriteReq misses
system.cpu.dcache.WriteReq_miss_latency::.cpu.data     19795875                       # number of WriteReq miss cycles
system.cpu.dcache.WriteReq_miss_latency::total     19795875                       # number of WriteReq miss cycles
system.cpu.dcache.WriteReq_accesses::.cpu.data        53000                       # number of WriteReq accesses(hits+misses)
system.cpu.dcache.WriteReq_accesses::total        53000                       # number of WriteReq accesses(hits+misses)
system.cpu.dcache.WriteReq_miss_rate::.cpu.data     0.004509                       # miss rate for WriteReq accesses
system.cpu.dcache.WriteReq_miss_rate::total     0.004509                       # miss rate for WriteReq accesses
system.cpu.dcache.WriteReq_avg_miss_latency::.cpu.data 82827.928870                       # average WriteReq miss latency
system.cpu.dcache.WriteReq_avg_miss_latency::total 82827.928870                       # average WriteReq miss latency
system.cpu.dcache.WriteReq_mshr_hits::.cpu.data          106                       # number of WriteReq MSHR hits
system.cpu.dcache.WriteReq_mshr_hits::total          106                       # number of WriteReq MSHR hits
system.cpu.dcache.WriteReq_mshr_misses::.cpu.data          133                       # number of WriteReq MSHR misses
system.cpu.dcache.WriteReq_mshr_misses::total          133                       # number of WriteReq MSHR misses
system.cpu.dcache.WriteReq_mshr_uncacheable::.cpu.data         4214                       # number of WriteReq MSHR uncacheable
system.cpu.dcache.WriteReq_mshr_uncacheable::total         4214                       # number of WriteReq MSHR uncacheable
system.cpu.dcache.WriteReq_mshr_miss_latency::.cpu.data     11027625                       # number of WriteReq MSHR miss cycles
system.cpu.dcache.WriteReq_mshr_miss_latency::total     11027625                       # number of WriteReq MSHR miss cycles
system.cpu.dcache.WriteReq_mshr_miss_rate::.cpu.data     0.002509                       # mshr miss rate for WriteReq accesses
system.cpu.dcache.WriteReq_mshr_miss_rate::total     0.002509                       # mshr miss rate for WriteReq accesses
system.cpu.dcache.WriteReq_avg_mshr_miss_latency::.cpu.data 82914.473684                       # average WriteReq mshr miss latency
system.cpu.dcache.WriteReq_avg_mshr_miss_latency::total 82914.473684                       # average WriteReq mshr miss latency
system.cpu.dcache.tags.pwrStateResidencyTicks::UNDEFINED  24562454375                       # Cumulative time (in ticks) in various power states
system.cpu.dcache.tags.tagsinuse           483.120613                       # Cycle average of tags in use
system.cpu.dcache.tags.total_refs              277076                       # Total number of references to valid blocks.
system.cpu.dcache.tags.sampled_refs               805                       # Sample count of references to valid blocks.
system.cpu.dcache.tags.avg_refs            344.193789                       # Average number of references to valid blocks.
system.cpu.dcache.tags.warmup_cycle                 0                       # Cycle when the warmup percentage was hit.
system.cpu.dcache.tags.occ_blocks::.cpu.data   483.120613                       # Average occupied blocks per requestor
system.cpu.dcache.tags.occ_percent::.cpu.data     0.943595                       # Average percentage of cache occupancy
system.cpu.dcache.tags.occ_percent::total     0.943595                       # Average percentage of cache occupancy
system.cpu.dcache.tags.occ_task_id_blocks::1024          491                       # Occupied blocks per task id
system.cpu.dcache.tags.age_task_id_blocks_1024::0            5                       # Occupied blocks per task id
system.cpu.dcache.tags.age_task_id_blocks_1024::1            2                       # Occupied blocks per task id
system.cpu.dcache.tags.age_task_id_blocks_1024::3           39                       # Occupied blocks per task id
system.cpu.dcache.tags.age_task_id_blocks_1024::4          445                       # Occupied blocks per task id
system.cpu.dcache.tags.occ_task_id_percent::1024     0.958984                       # Percentage of cache occupancy per task id
system.cpu.dcache.tags.tag_accesses            575878                       # Number of tag accesses
system.cpu.dcache.tags.data_accesses           575878                       # Number of data accesses
system.cpu.itb.walker.pwrStateResidencyTicks::UNDEFINED  24562454375                       # Cumulative time (in ticks) in various power states
system.cpu.itb.stage2_mmu.stage2_tlb.walker.pwrStateResidencyTicks::UNDEFINED  24562454375                       # Cumulative time (in ticks) in various power states

---------- End Simulation Statistics   ----------
