
---------- Begin Simulation Statistics ----------
final_tick                                14015766807                       # Number of ticks from beginning of simulation (restored from checkpoints and never reset)
host_inst_rate                                 167441                       # Simulator instruction rate (inst/s)
host_mem_usage                                4605664                       # Number of bytes of host memory used
host_op_rate                                   194644                       # Simulator op (including micro ops) rate (op/s)
host_seconds                                    99.80                       # Real time elapsed on the host
host_tick_rate                              140444185                       # Simulator tick rate (ticks/s)
sim_freq                                 1000000000000                       # Frequency of simulated ticks
sim_insts                                    16709846                       # Number of instructions simulated
sim_ops                                      19424678                       # Number of ops (including micro ops) simulated
sim_seconds                                  0.014016                       # Number of seconds simulated
sim_ticks                                 14015766807                       # Number of ticks simulated
system.cpu_cluster.cpus.branchPred.BTBCorrect            0                       # Number of correct BTB predictions (this stat may not work properly.
system.cpu_cluster.cpus.branchPred.BTBHitPct    84.677664                       # BTB Hit Percentage
system.cpu_cluster.cpus.branchPred.BTBHits      1655102                       # Number of BTB hits
system.cpu_cluster.cpus.branchPred.BTBLookups      1954591                       # Number of BTB lookups
system.cpu_cluster.cpus.branchPred.RASInCorrect            0                       # Number of incorrect RAS predictions.
system.cpu_cluster.cpus.branchPred.condIncorrect        68844                       # Number of conditional branches incorrect
system.cpu_cluster.cpus.branchPred.condPredicted      2468908                       # Number of conditional branches predicted
system.cpu_cluster.cpus.branchPred.indirectHits       205007                       # Number of indirect target hits.
system.cpu_cluster.cpus.branchPred.indirectLookups       207448                       # Number of indirect predictor lookups.
system.cpu_cluster.cpus.branchPred.indirectMisses         2441                       # Number of indirect misses.
system.cpu_cluster.cpus.branchPred.lookups      3993075                       # Number of BP lookups
system.cpu_cluster.cpus.branchPred.usedRAS       599908                       # Number of times the RAS was used to get a target.
system.cpu_cluster.cpus.branchPredindirectMispredicted         7527                       # Number of mispredicted indirect branches.
system.cpu_cluster.cpus.committedInsts       16709846                       # Number of instructions committed
system.cpu_cluster.cpus.committedOps         19424678                       # Number of ops (including micro ops) committed
system.cpu_cluster.cpus.cpi                  2.349504                       # CPI: cycles per instruction
system.cpu_cluster.cpus.discardedOps           203094                       # Number of ops (including micro ops) which were discarded before commit
system.cpu_cluster.cpus.dtb.accesses                0                       # DTB accesses
system.cpu_cluster.cpus.dtb.align_faults            0                       # Number of TLB faults due to alignment restrictions
system.cpu_cluster.cpus.dtb.domain_faults            0                       # Number of TLB faults due to domain restrictions
system.cpu_cluster.cpus.dtb.flush_entries            0                       # Number of entries that have been flushed from TLB
system.cpu_cluster.cpus.dtb.flush_tlb               0                       # Number of times complete TLB was flushed
system.cpu_cluster.cpus.dtb.flush_tlb_asid            0                       # Number of times TLB was flushed by ASID
system.cpu_cluster.cpus.dtb.flush_tlb_mva            0                       # Number of times TLB was flushed by MVA
system.cpu_cluster.cpus.dtb.flush_tlb_mva_asid            0                       # Number of times TLB was flushed by MVA & ASID
system.cpu_cluster.cpus.dtb.hits                    0                       # DTB hits
system.cpu_cluster.cpus.dtb.inst_accesses            0                       # ITB inst accesses
system.cpu_cluster.cpus.dtb.inst_hits               0                       # ITB inst hits
system.cpu_cluster.cpus.dtb.inst_misses             0                       # ITB inst misses
system.cpu_cluster.cpus.dtb.misses                  0                       # DTB misses
system.cpu_cluster.cpus.dtb.perms_faults            0                       # Number of TLB faults due to permissions restrictions
system.cpu_cluster.cpus.dtb.prefetch_faults            0                       # Number of TLB faults due to prefetch
system.cpu_cluster.cpus.dtb.read_accesses            0                       # DTB read accesses
system.cpu_cluster.cpus.dtb.read_hits               0                       # DTB read hits
system.cpu_cluster.cpus.dtb.read_misses             0                       # DTB read misses
system.cpu_cluster.cpus.dtb.stage2_mmu.stage2_tlb.accesses            0                       # DTB accesses
system.cpu_cluster.cpus.dtb.stage2_mmu.stage2_tlb.align_faults            0                       # Number of TLB faults due to alignment restrictions
system.cpu_cluster.cpus.dtb.stage2_mmu.stage2_tlb.domain_faults            0                       # Number of TLB faults due to domain restrictions
system.cpu_cluster.cpus.dtb.stage2_mmu.stage2_tlb.flush_entries            0                       # Number of entries that have been flushed from TLB
system.cpu_cluster.cpus.dtb.stage2_mmu.stage2_tlb.flush_tlb            0                       # Number of times complete TLB was flushed
system.cpu_cluster.cpus.dtb.stage2_mmu.stage2_tlb.flush_tlb_asid            0                       # Number of times TLB was flushed by ASID
system.cpu_cluster.cpus.dtb.stage2_mmu.stage2_tlb.flush_tlb_mva            0                       # Number of times TLB was flushed by MVA
system.cpu_cluster.cpus.dtb.stage2_mmu.stage2_tlb.flush_tlb_mva_asid            0                       # Number of times TLB was flushed by MVA & ASID
system.cpu_cluster.cpus.dtb.stage2_mmu.stage2_tlb.hits            0                       # DTB hits
system.cpu_cluster.cpus.dtb.stage2_mmu.stage2_tlb.inst_accesses            0                       # ITB inst accesses
system.cpu_cluster.cpus.dtb.stage2_mmu.stage2_tlb.inst_hits            0                       # ITB inst hits
system.cpu_cluster.cpus.dtb.stage2_mmu.stage2_tlb.inst_misses            0                       # ITB inst misses
system.cpu_cluster.cpus.dtb.stage2_mmu.stage2_tlb.misses            0                       # DTB misses
system.cpu_cluster.cpus.dtb.stage2_mmu.stage2_tlb.perms_faults            0                       # Number of TLB faults due to permissions restrictions
system.cpu_cluster.cpus.dtb.stage2_mmu.stage2_tlb.prefetch_faults            0                       # Number of TLB faults due to prefetch
system.cpu_cluster.cpus.dtb.stage2_mmu.stage2_tlb.read_accesses            0                       # DTB read accesses
system.cpu_cluster.cpus.dtb.stage2_mmu.stage2_tlb.read_hits            0                       # DTB read hits
system.cpu_cluster.cpus.dtb.stage2_mmu.stage2_tlb.read_misses            0                       # DTB read misses
system.cpu_cluster.cpus.dtb.stage2_mmu.stage2_tlb.walker.walkRequestOrigin_Requested::Data            0                       # Table walker requests started/completed, data/inst
system.cpu_cluster.cpus.dtb.stage2_mmu.stage2_tlb.walker.walkRequestOrigin_Requested::Inst            0                       # Table walker requests started/completed, data/inst
system.cpu_cluster.cpus.dtb.stage2_mmu.stage2_tlb.walker.walkRequestOrigin_Requested::total            0                       # Table walker requests started/completed, data/inst
system.cpu_cluster.cpus.dtb.stage2_mmu.stage2_tlb.walker.walkRequestOrigin_Completed::Data            0                       # Table walker requests started/completed, data/inst
system.cpu_cluster.cpus.dtb.stage2_mmu.stage2_tlb.walker.walkRequestOrigin_Completed::Inst            0                       # Table walker requests started/completed, data/inst
system.cpu_cluster.cpus.dtb.stage2_mmu.stage2_tlb.walker.walkRequestOrigin_Completed::total            0                       # Table walker requests started/completed, data/inst
system.cpu_cluster.cpus.dtb.stage2_mmu.stage2_tlb.walker.walkRequestOrigin::total            0                       # Table walker requests started/completed, data/inst
system.cpu_cluster.cpus.dtb.stage2_mmu.stage2_tlb.walker.walks            0                       # Table walker walks requested
system.cpu_cluster.cpus.dtb.stage2_mmu.stage2_tlb.write_accesses            0                       # DTB write accesses
system.cpu_cluster.cpus.dtb.stage2_mmu.stage2_tlb.write_hits            0                       # DTB write hits
system.cpu_cluster.cpus.dtb.stage2_mmu.stage2_tlb.write_misses            0                       # DTB write misses
system.cpu_cluster.cpus.dtb.walker.walkRequestOrigin_Requested::Data            0                       # Table walker requests started/completed, data/inst
system.cpu_cluster.cpus.dtb.walker.walkRequestOrigin_Requested::Inst            0                       # Table walker requests started/completed, data/inst
system.cpu_cluster.cpus.dtb.walker.walkRequestOrigin_Requested::total            0                       # Table walker requests started/completed, data/inst
system.cpu_cluster.cpus.dtb.walker.walkRequestOrigin_Completed::Data            0                       # Table walker requests started/completed, data/inst
system.cpu_cluster.cpus.dtb.walker.walkRequestOrigin_Completed::Inst            0                       # Table walker requests started/completed, data/inst
system.cpu_cluster.cpus.dtb.walker.walkRequestOrigin_Completed::total            0                       # Table walker requests started/completed, data/inst
system.cpu_cluster.cpus.dtb.walker.walkRequestOrigin::total            0                       # Table walker requests started/completed, data/inst
system.cpu_cluster.cpus.dtb.walker.walks            0                       # Table walker walks requested
system.cpu_cluster.cpus.dtb.write_accesses            0                       # DTB write accesses
system.cpu_cluster.cpus.dtb.write_hits              0                       # DTB write hits
system.cpu_cluster.cpus.dtb.write_misses            0                       # DTB write misses
system.cpu_cluster.cpus.fetch2.amo_instructions          498                       # Number of memory atomic instructions successfully decoded
system.cpu_cluster.cpus.fetch2.fp_instructions            0                       # Number of floating point instructions successfully decoded
system.cpu_cluster.cpus.fetch2.int_instructions      7798500                       # Number of integer instructions successfully decoded
system.cpu_cluster.cpus.fetch2.load_instructions      3491314                       # Number of memory load instructions successfully decoded
system.cpu_cluster.cpus.fetch2.store_instructions      1736528                       # Number of memory store instructions successfully decoded
system.cpu_cluster.cpus.fetch2.vec_instructions       185069                       # Number of SIMD instructions successfully decoded
system.cpu_cluster.cpus.idleCycles           15709671                       # Total number of cycles that the object has spent stopped
system.cpu_cluster.cpus.ipc                  0.425622                       # IPC: instructions per cycle
system.cpu_cluster.cpus.itb.accesses                0                       # DTB accesses
system.cpu_cluster.cpus.itb.align_faults            0                       # Number of TLB faults due to alignment restrictions
system.cpu_cluster.cpus.itb.domain_faults            0                       # Number of TLB faults due to domain restrictions
system.cpu_cluster.cpus.itb.flush_entries            0                       # Number of entries that have been flushed from TLB
system.cpu_cluster.cpus.itb.flush_tlb               0                       # Number of times complete TLB was flushed
system.cpu_cluster.cpus.itb.flush_tlb_asid            0                       # Number of times TLB was flushed by ASID
system.cpu_cluster.cpus.itb.flush_tlb_mva            0                       # Number of times TLB was flushed by MVA
system.cpu_cluster.cpus.itb.flush_tlb_mva_asid            0                       # Number of times TLB was flushed by MVA & ASID
system.cpu_cluster.cpus.itb.hits                    0                       # DTB hits
system.cpu_cluster.cpus.itb.inst_accesses            0                       # ITB inst accesses
system.cpu_cluster.cpus.itb.inst_hits               0                       # ITB inst hits
system.cpu_cluster.cpus.itb.inst_misses             0                       # ITB inst misses
system.cpu_cluster.cpus.itb.misses                  0                       # DTB misses
system.cpu_cluster.cpus.itb.perms_faults            0                       # Number of TLB faults due to permissions restrictions
system.cpu_cluster.cpus.itb.prefetch_faults            0                       # Number of TLB faults due to prefetch
system.cpu_cluster.cpus.itb.read_accesses            0                       # DTB read accesses
system.cpu_cluster.cpus.itb.read_hits               0                       # DTB read hits
system.cpu_cluster.cpus.itb.read_misses             0                       # DTB read misses
system.cpu_cluster.cpus.itb.stage2_mmu.stage2_tlb.accesses            0                       # DTB accesses
system.cpu_cluster.cpus.itb.stage2_mmu.stage2_tlb.align_faults            0                       # Number of TLB faults due to alignment restrictions
system.cpu_cluster.cpus.itb.stage2_mmu.stage2_tlb.domain_faults            0                       # Number of TLB faults due to domain restrictions
system.cpu_cluster.cpus.itb.stage2_mmu.stage2_tlb.flush_entries            0                       # Number of entries that have been flushed from TLB
system.cpu_cluster.cpus.itb.stage2_mmu.stage2_tlb.flush_tlb            0                       # Number of times complete TLB was flushed
system.cpu_cluster.cpus.itb.stage2_mmu.stage2_tlb.flush_tlb_asid            0                       # Number of times TLB was flushed by ASID
system.cpu_cluster.cpus.itb.stage2_mmu.stage2_tlb.flush_tlb_mva            0                       # Number of times TLB was flushed by MVA
system.cpu_cluster.cpus.itb.stage2_mmu.stage2_tlb.flush_tlb_mva_asid            0                       # Number of times TLB was flushed by MVA & ASID
system.cpu_cluster.cpus.itb.stage2_mmu.stage2_tlb.hits            0                       # DTB hits
system.cpu_cluster.cpus.itb.stage2_mmu.stage2_tlb.inst_accesses            0                       # ITB inst accesses
system.cpu_cluster.cpus.itb.stage2_mmu.stage2_tlb.inst_hits            0                       # ITB inst hits
system.cpu_cluster.cpus.itb.stage2_mmu.stage2_tlb.inst_misses            0                       # ITB inst misses
system.cpu_cluster.cpus.itb.stage2_mmu.stage2_tlb.misses            0                       # DTB misses
system.cpu_cluster.cpus.itb.stage2_mmu.stage2_tlb.perms_faults            0                       # Number of TLB faults due to permissions restrictions
system.cpu_cluster.cpus.itb.stage2_mmu.stage2_tlb.prefetch_faults            0                       # Number of TLB faults due to prefetch
system.cpu_cluster.cpus.itb.stage2_mmu.stage2_tlb.read_accesses            0                       # DTB read accesses
system.cpu_cluster.cpus.itb.stage2_mmu.stage2_tlb.read_hits            0                       # DTB read hits
system.cpu_cluster.cpus.itb.stage2_mmu.stage2_tlb.read_misses            0                       # DTB read misses
system.cpu_cluster.cpus.itb.stage2_mmu.stage2_tlb.walker.walkRequestOrigin_Requested::Data            0                       # Table walker requests started/completed, data/inst
system.cpu_cluster.cpus.itb.stage2_mmu.stage2_tlb.walker.walkRequestOrigin_Requested::Inst            0                       # Table walker requests started/completed, data/inst
system.cpu_cluster.cpus.itb.stage2_mmu.stage2_tlb.walker.walkRequestOrigin_Requested::total            0                       # Table walker requests started/completed, data/inst
system.cpu_cluster.cpus.itb.stage2_mmu.stage2_tlb.walker.walkRequestOrigin_Completed::Data            0                       # Table walker requests started/completed, data/inst
system.cpu_cluster.cpus.itb.stage2_mmu.stage2_tlb.walker.walkRequestOrigin_Completed::Inst            0                       # Table walker requests started/completed, data/inst
system.cpu_cluster.cpus.itb.stage2_mmu.stage2_tlb.walker.walkRequestOrigin_Completed::total            0                       # Table walker requests started/completed, data/inst
system.cpu_cluster.cpus.itb.stage2_mmu.stage2_tlb.walker.walkRequestOrigin::total            0                       # Table walker requests started/completed, data/inst
system.cpu_cluster.cpus.itb.stage2_mmu.stage2_tlb.walker.walks            0                       # Table walker walks requested
system.cpu_cluster.cpus.itb.stage2_mmu.stage2_tlb.write_accesses            0                       # DTB write accesses
system.cpu_cluster.cpus.itb.stage2_mmu.stage2_tlb.write_hits            0                       # DTB write hits
system.cpu_cluster.cpus.itb.stage2_mmu.stage2_tlb.write_misses            0                       # DTB write misses
system.cpu_cluster.cpus.itb.walker.walkRequestOrigin_Requested::Data            0                       # Table walker requests started/completed, data/inst
system.cpu_cluster.cpus.itb.walker.walkRequestOrigin_Requested::Inst            0                       # Table walker requests started/completed, data/inst
system.cpu_cluster.cpus.itb.walker.walkRequestOrigin_Requested::total            0                       # Table walker requests started/completed, data/inst
system.cpu_cluster.cpus.itb.walker.walkRequestOrigin_Completed::Data            0                       # Table walker requests started/completed, data/inst
system.cpu_cluster.cpus.itb.walker.walkRequestOrigin_Completed::Inst            0                       # Table walker requests started/completed, data/inst
system.cpu_cluster.cpus.itb.walker.walkRequestOrigin_Completed::total            0                       # Table walker requests started/completed, data/inst
system.cpu_cluster.cpus.itb.walker.walkRequestOrigin::total            0                       # Table walker requests started/completed, data/inst
system.cpu_cluster.cpus.itb.walker.walks            0                       # Table walker walks requested
system.cpu_cluster.cpus.itb.write_accesses            0                       # DTB write accesses
system.cpu_cluster.cpus.itb.write_hits              0                       # DTB write hits
system.cpu_cluster.cpus.itb.write_misses            0                       # DTB write misses
system.cpu_cluster.cpus.numCycles            39259851                       # number of cpu cycles simulated
system.cpu_cluster.cpus.numFetchSuspends            0                       # Number of times Execute suspended instruction fetching
system.cpu_cluster.cpus.numWorkItemsCompleted            0                       # number of work items this cpu completed
system.cpu_cluster.cpus.numWorkItemsStarted            0                       # number of work items this cpu started
system.cpu_cluster.cpus.op_class_0::No_OpClass        30605      0.16%      0.16% # Class of committed instruction
system.cpu_cluster.cpus.op_class_0::IntAlu     11514848     59.28%     59.44% # Class of committed instruction
system.cpu_cluster.cpus.op_class_0::IntMult        11125      0.06%     59.49% # Class of committed instruction
system.cpu_cluster.cpus.op_class_0::IntDiv           41      0.00%     59.49% # Class of committed instruction
system.cpu_cluster.cpus.op_class_0::FloatAdd         2160      0.01%     59.51% # Class of committed instruction
system.cpu_cluster.cpus.op_class_0::FloatCmp           12      0.00%     59.51% # Class of committed instruction
system.cpu_cluster.cpus.op_class_0::FloatCvt         2161      0.01%     59.52% # Class of committed instruction
system.cpu_cluster.cpus.op_class_0::FloatMult            0      0.00%     59.52% # Class of committed instruction
system.cpu_cluster.cpus.op_class_0::FloatMultAcc            0      0.00%     59.52% # Class of committed instruction
system.cpu_cluster.cpus.op_class_0::FloatDiv         2163      0.01%     59.53% # Class of committed instruction
system.cpu_cluster.cpus.op_class_0::FloatMisc        13729      0.07%     59.60% # Class of committed instruction
system.cpu_cluster.cpus.op_class_0::FloatSqrt            0      0.00%     59.60% # Class of committed instruction
system.cpu_cluster.cpus.op_class_0::SimdAdd        10928      0.06%     59.65% # Class of committed instruction
system.cpu_cluster.cpus.op_class_0::SimdAddAcc            0      0.00%     59.65% # Class of committed instruction
system.cpu_cluster.cpus.op_class_0::SimdAlu        10975      0.06%     59.71% # Class of committed instruction
system.cpu_cluster.cpus.op_class_0::SimdCmp        13846      0.07%     59.78% # Class of committed instruction
system.cpu_cluster.cpus.op_class_0::SimdCvt            2      0.00%     59.78% # Class of committed instruction
system.cpu_cluster.cpus.op_class_0::SimdMisc       118430      0.61%     60.39% # Class of committed instruction
system.cpu_cluster.cpus.op_class_0::SimdMult            0      0.00%     60.39% # Class of committed instruction
system.cpu_cluster.cpus.op_class_0::SimdMultAcc            0      0.00%     60.39% # Class of committed instruction
system.cpu_cluster.cpus.op_class_0::SimdShift            2      0.00%     60.39% # Class of committed instruction
system.cpu_cluster.cpus.op_class_0::SimdShiftAcc            0      0.00%     60.39% # Class of committed instruction
system.cpu_cluster.cpus.op_class_0::SimdDiv            0      0.00%     60.39% # Class of committed instruction
system.cpu_cluster.cpus.op_class_0::SimdSqrt            0      0.00%     60.39% # Class of committed instruction
system.cpu_cluster.cpus.op_class_0::SimdFloatAdd            0      0.00%     60.39% # Class of committed instruction
system.cpu_cluster.cpus.op_class_0::SimdFloatAlu            0      0.00%     60.39% # Class of committed instruction
system.cpu_cluster.cpus.op_class_0::SimdFloatCmp            0      0.00%     60.39% # Class of committed instruction
system.cpu_cluster.cpus.op_class_0::SimdFloatCvt            0      0.00%     60.39% # Class of committed instruction
system.cpu_cluster.cpus.op_class_0::SimdFloatDiv            0      0.00%     60.39% # Class of committed instruction
system.cpu_cluster.cpus.op_class_0::SimdFloatMisc            0      0.00%     60.39% # Class of committed instruction
system.cpu_cluster.cpus.op_class_0::SimdFloatMult            0      0.00%     60.39% # Class of committed instruction
system.cpu_cluster.cpus.op_class_0::SimdFloatMultAcc            0      0.00%     60.39% # Class of committed instruction
system.cpu_cluster.cpus.op_class_0::SimdFloatSqrt            0      0.00%     60.39% # Class of committed instruction
system.cpu_cluster.cpus.op_class_0::SimdReduceAdd            0      0.00%     60.39% # Class of committed instruction
system.cpu_cluster.cpus.op_class_0::SimdReduceAlu            0      0.00%     60.39% # Class of committed instruction
system.cpu_cluster.cpus.op_class_0::SimdReduceCmp            0      0.00%     60.39% # Class of committed instruction
system.cpu_cluster.cpus.op_class_0::SimdFloatReduceAdd            0      0.00%     60.39% # Class of committed instruction
system.cpu_cluster.cpus.op_class_0::SimdFloatReduceCmp            0      0.00%     60.39% # Class of committed instruction
system.cpu_cluster.cpus.op_class_0::SimdAes            0      0.00%     60.39% # Class of committed instruction
system.cpu_cluster.cpus.op_class_0::SimdAesMix            0      0.00%     60.39% # Class of committed instruction
system.cpu_cluster.cpus.op_class_0::SimdSha1Hash            0      0.00%     60.39% # Class of committed instruction
system.cpu_cluster.cpus.op_class_0::SimdSha1Hash2            0      0.00%     60.39% # Class of committed instruction
system.cpu_cluster.cpus.op_class_0::SimdSha256Hash            0      0.00%     60.39% # Class of committed instruction
system.cpu_cluster.cpus.op_class_0::SimdSha256Hash2            0      0.00%     60.39% # Class of committed instruction
system.cpu_cluster.cpus.op_class_0::SimdShaSigma2            0      0.00%     60.39% # Class of committed instruction
system.cpu_cluster.cpus.op_class_0::SimdShaSigma3            0      0.00%     60.39% # Class of committed instruction
system.cpu_cluster.cpus.op_class_0::SimdPredAlu            0      0.00%     60.39% # Class of committed instruction
system.cpu_cluster.cpus.op_class_0::MemRead      4065923     20.93%     81.32% # Class of committed instruction
system.cpu_cluster.cpus.op_class_0::MemWrite      3627728     18.68%    100.00% # Class of committed instruction
system.cpu_cluster.cpus.op_class_0::FloatMemRead            0      0.00%    100.00% # Class of committed instruction
system.cpu_cluster.cpus.op_class_0::FloatMemWrite            0      0.00%    100.00% # Class of committed instruction
system.cpu_cluster.cpus.op_class_0::IprAccess            0      0.00%    100.00% # Class of committed instruction
system.cpu_cluster.cpus.op_class_0::InstPrefetch            0      0.00%    100.00% # Class of committed instruction
system.cpu_cluster.cpus.op_class_0::total     19424678                       # Class of committed instruction
system.cpu_cluster.cpus.tickCycles           23550180                       # Number of cycles that the object actually ticked
system.cpu_cluster.cpus.workload.numSyscalls         4460                       # Number of system calls
system.membus.snoop_filter.hit_multi_requests            2                       # Number of requests hitting in the snoop filter with multiple (>1) holders of the requested data.
system.membus.snoop_filter.hit_multi_snoops            0                       # Number of snoops hitting in the snoop filter with multiple (>1) holders of the requested data.
system.membus.snoop_filter.hit_single_requests        87352                       # Number of requests hitting in the snoop filter with a single holder of the requested data.
system.membus.snoop_filter.hit_single_snoops            0                       # Number of snoops hitting in the snoop filter with a single holder of the requested data.
system.membus.snoop_filter.tot_requests        175727                       # Total number of requests made to the snoop filter.
system.membus.snoop_filter.tot_snoops               0                       # Total number of snoops made to the snoop filter.
system.membus.pwrStateResidencyTicks::UNDEFINED  14015766807                       # Cumulative time (in ticks) in various power states
system.membus.trans_dist::ReadResp              84349                       # Transaction distribution
system.membus.trans_dist::WritebackDirty         7206                       # Transaction distribution
system.membus.trans_dist::CleanEvict            80145                       # Transaction distribution
system.membus.trans_dist::ReadExReq              4012                       # Transaction distribution
system.membus.trans_dist::ReadExResp             4012                       # Transaction distribution
system.membus.trans_dist::ReadCleanReq          75262                       # Transaction distribution
system.membus.trans_dist::ReadSharedReq          9088                       # Transaction distribution
system.membus.trans_dist::InvalidateReq            14                       # Transaction distribution
system.membus.pkt_count_system.cpu_cluster.cpus.icache.mem_side::system.mem_ctrls.port       225272                       # Packet count per connected master and slave (bytes)
system.membus.pkt_count_system.cpu_cluster.cpus.icache.mem_side::total       225272                       # Packet count per connected master and slave (bytes)
system.membus.pkt_count_system.cpu_cluster.cpus.dcache.mem_side::system.mem_ctrls.port        38816                       # Packet count per connected master and slave (bytes)
system.membus.pkt_count_system.cpu_cluster.cpus.dcache.mem_side::total        38816                       # Packet count per connected master and slave (bytes)
system.membus.pkt_count::total                 264088                       # Packet count per connected master and slave (bytes)
system.membus.pkt_size_system.cpu_cluster.cpus.icache.mem_side::system.mem_ctrls.port      4816704                       # Cumulative packet size per connected master and slave (bytes)
system.membus.pkt_size_system.cpu_cluster.cpus.icache.mem_side::total      4816704                       # Cumulative packet size per connected master and slave (bytes)
system.membus.pkt_size_system.cpu_cluster.cpus.dcache.mem_side::system.mem_ctrls.port      1299584                       # Cumulative packet size per connected master and slave (bytes)
system.membus.pkt_size_system.cpu_cluster.cpus.dcache.mem_side::total      1299584                       # Cumulative packet size per connected master and slave (bytes)
system.membus.pkt_size::total                 6116288                       # Cumulative packet size per connected master and slave (bytes)
system.membus.snoops                                0                       # Total snoops (count)
system.membus.snoopTraffic                          0                       # Total snoop traffic (bytes)
system.membus.snoop_fanout::samples             88376                       # Request fanout histogram
system.membus.snoop_fanout::mean             0.000034                       # Request fanout histogram
system.membus.snoop_fanout::stdev            0.005826                       # Request fanout histogram
system.membus.snoop_fanout::underflows              0      0.00%      0.00% # Request fanout histogram
system.membus.snoop_fanout::0                   88373    100.00%    100.00% # Request fanout histogram
system.membus.snoop_fanout::1                       3      0.00%    100.00% # Request fanout histogram
system.membus.snoop_fanout::2                       0      0.00%    100.00% # Request fanout histogram
system.membus.snoop_fanout::overflows               0      0.00%    100.00% # Request fanout histogram
system.membus.snoop_fanout::min_value               0                       # Request fanout histogram
system.membus.snoop_fanout::max_value               1                       # Request fanout histogram
system.membus.snoop_fanout::total               88376                       # Request fanout histogram
system.membus.reqLayer0.occupancy           277461344                       # Layer occupancy (ticks)
system.membus.reqLayer0.utilization               2.0                       # Layer utilization (%)
system.membus.badaddr_responder.pwrStateResidencyTicks::UNDEFINED  14015766807                       # Cumulative time (in ticks) in various power states
system.membus.respLayer1.occupancy          377236411                       # Layer occupancy (ticks)
system.membus.respLayer1.utilization              2.7                       # Layer utilization (%)
system.membus.respLayer2.occupancy           66239741                       # Layer occupancy (ticks)
system.membus.respLayer2.utilization              0.5                       # Layer utilization (%)
system.voltage_domain.voltage                       1                       # Voltage in Volts
system.clk_domain.clock                          1000                       # Clock period in ticks
system.cpu_cluster.voltage_domain.voltage            1                       # Voltage in Volts
system.cpu_cluster.clk_domain.clock               357                       # Clock period in ticks
system.cpu_cluster.cpus.pwrStateResidencyTicks::ON  14015766807                       # Cumulative time (in ticks) in various power states
system.cpu_cluster.cpus.icache.pwrStateResidencyTicks::UNDEFINED  14015766807                       # Cumulative time (in ticks) in various power states
system.cpu_cluster.cpus.icache.demand_hits::.cpu_cluster.cpus.inst      6545880                       # number of demand (read+write) hits
system.cpu_cluster.cpus.icache.demand_hits::total      6545880                       # number of demand (read+write) hits
system.cpu_cluster.cpus.icache.overall_hits::.cpu_cluster.cpus.inst      6545880                       # number of overall hits
system.cpu_cluster.cpus.icache.overall_hits::total      6545880                       # number of overall hits
system.cpu_cluster.cpus.icache.demand_misses::.cpu_cluster.cpus.inst        75262                       # number of demand (read+write) misses
system.cpu_cluster.cpus.icache.demand_misses::total        75262                       # number of demand (read+write) misses
system.cpu_cluster.cpus.icache.overall_misses::.cpu_cluster.cpus.inst        75262                       # number of overall misses
system.cpu_cluster.cpus.icache.overall_misses::total        75262                       # number of overall misses
system.cpu_cluster.cpus.icache.demand_miss_latency::.cpu_cluster.cpus.inst   5252924061                       # number of demand (read+write) miss cycles
system.cpu_cluster.cpus.icache.demand_miss_latency::total   5252924061                       # number of demand (read+write) miss cycles
system.cpu_cluster.cpus.icache.overall_miss_latency::.cpu_cluster.cpus.inst   5252924061                       # number of overall miss cycles
system.cpu_cluster.cpus.icache.overall_miss_latency::total   5252924061                       # number of overall miss cycles
system.cpu_cluster.cpus.icache.demand_accesses::.cpu_cluster.cpus.inst      6621142                       # number of demand (read+write) accesses
system.cpu_cluster.cpus.icache.demand_accesses::total      6621142                       # number of demand (read+write) accesses
system.cpu_cluster.cpus.icache.overall_accesses::.cpu_cluster.cpus.inst      6621142                       # number of overall (read+write) accesses
system.cpu_cluster.cpus.icache.overall_accesses::total      6621142                       # number of overall (read+write) accesses
system.cpu_cluster.cpus.icache.demand_miss_rate::.cpu_cluster.cpus.inst     0.011367                       # miss rate for demand accesses
system.cpu_cluster.cpus.icache.demand_miss_rate::total     0.011367                       # miss rate for demand accesses
system.cpu_cluster.cpus.icache.overall_miss_rate::.cpu_cluster.cpus.inst     0.011367                       # miss rate for overall accesses
system.cpu_cluster.cpus.icache.overall_miss_rate::total     0.011367                       # miss rate for overall accesses
system.cpu_cluster.cpus.icache.demand_avg_miss_latency::.cpu_cluster.cpus.inst 69795.169687                       # average overall miss latency
system.cpu_cluster.cpus.icache.demand_avg_miss_latency::total 69795.169687                       # average overall miss latency
system.cpu_cluster.cpus.icache.overall_avg_miss_latency::.cpu_cluster.cpus.inst 69795.169687                       # average overall miss latency
system.cpu_cluster.cpus.icache.overall_avg_miss_latency::total 69795.169687                       # average overall miss latency
system.cpu_cluster.cpus.icache.blocked_cycles::no_mshrs            0                       # number of cycles access was blocked
system.cpu_cluster.cpus.icache.blocked_cycles::no_targets            0                       # number of cycles access was blocked
system.cpu_cluster.cpus.icache.blocked::no_mshrs            0                       # number of cycles access was blocked
system.cpu_cluster.cpus.icache.blocked::no_targets            0                       # number of cycles access was blocked
system.cpu_cluster.cpus.icache.avg_blocked_cycles::no_mshrs          nan                       # average number of cycles each access was blocked
system.cpu_cluster.cpus.icache.avg_blocked_cycles::no_targets          nan                       # average number of cycles each access was blocked
system.cpu_cluster.cpus.icache.demand_mshr_misses::.cpu_cluster.cpus.inst        75262                       # number of demand (read+write) MSHR misses
system.cpu_cluster.cpus.icache.demand_mshr_misses::total        75262                       # number of demand (read+write) MSHR misses
system.cpu_cluster.cpus.icache.overall_mshr_misses::.cpu_cluster.cpus.inst        75262                       # number of overall MSHR misses
system.cpu_cluster.cpus.icache.overall_mshr_misses::total        75262                       # number of overall MSHR misses
system.cpu_cluster.cpus.icache.demand_mshr_miss_latency::.cpu_cluster.cpus.inst   5185637895                       # number of demand (read+write) MSHR miss cycles
system.cpu_cluster.cpus.icache.demand_mshr_miss_latency::total   5185637895                       # number of demand (read+write) MSHR miss cycles
system.cpu_cluster.cpus.icache.overall_mshr_miss_latency::.cpu_cluster.cpus.inst   5185637895                       # number of overall MSHR miss cycles
system.cpu_cluster.cpus.icache.overall_mshr_miss_latency::total   5185637895                       # number of overall MSHR miss cycles
system.cpu_cluster.cpus.icache.demand_mshr_miss_rate::.cpu_cluster.cpus.inst     0.011367                       # mshr miss rate for demand accesses
system.cpu_cluster.cpus.icache.demand_mshr_miss_rate::total     0.011367                       # mshr miss rate for demand accesses
system.cpu_cluster.cpus.icache.overall_mshr_miss_rate::.cpu_cluster.cpus.inst     0.011367                       # mshr miss rate for overall accesses
system.cpu_cluster.cpus.icache.overall_mshr_miss_rate::total     0.011367                       # mshr miss rate for overall accesses
system.cpu_cluster.cpus.icache.demand_avg_mshr_miss_latency::.cpu_cluster.cpus.inst 68901.143937                       # average overall mshr miss latency
system.cpu_cluster.cpus.icache.demand_avg_mshr_miss_latency::total 68901.143937                       # average overall mshr miss latency
system.cpu_cluster.cpus.icache.overall_avg_mshr_miss_latency::.cpu_cluster.cpus.inst 68901.143937                       # average overall mshr miss latency
system.cpu_cluster.cpus.icache.overall_avg_mshr_miss_latency::total 68901.143937                       # average overall mshr miss latency
system.cpu_cluster.cpus.icache.replacements        74749                       # number of replacements
system.cpu_cluster.cpus.icache.ReadReq_hits::.cpu_cluster.cpus.inst      6545880                       # number of ReadReq hits
system.cpu_cluster.cpus.icache.ReadReq_hits::total      6545880                       # number of ReadReq hits
system.cpu_cluster.cpus.icache.ReadReq_misses::.cpu_cluster.cpus.inst        75262                       # number of ReadReq misses
system.cpu_cluster.cpus.icache.ReadReq_misses::total        75262                       # number of ReadReq misses
system.cpu_cluster.cpus.icache.ReadReq_miss_latency::.cpu_cluster.cpus.inst   5252924061                       # number of ReadReq miss cycles
system.cpu_cluster.cpus.icache.ReadReq_miss_latency::total   5252924061                       # number of ReadReq miss cycles
system.cpu_cluster.cpus.icache.ReadReq_accesses::.cpu_cluster.cpus.inst      6621142                       # number of ReadReq accesses(hits+misses)
system.cpu_cluster.cpus.icache.ReadReq_accesses::total      6621142                       # number of ReadReq accesses(hits+misses)
system.cpu_cluster.cpus.icache.ReadReq_miss_rate::.cpu_cluster.cpus.inst     0.011367                       # miss rate for ReadReq accesses
system.cpu_cluster.cpus.icache.ReadReq_miss_rate::total     0.011367                       # miss rate for ReadReq accesses
system.cpu_cluster.cpus.icache.ReadReq_avg_miss_latency::.cpu_cluster.cpus.inst 69795.169687                       # average ReadReq miss latency
system.cpu_cluster.cpus.icache.ReadReq_avg_miss_latency::total 69795.169687                       # average ReadReq miss latency
system.cpu_cluster.cpus.icache.ReadReq_mshr_misses::.cpu_cluster.cpus.inst        75262                       # number of ReadReq MSHR misses
system.cpu_cluster.cpus.icache.ReadReq_mshr_misses::total        75262                       # number of ReadReq MSHR misses
system.cpu_cluster.cpus.icache.ReadReq_mshr_miss_latency::.cpu_cluster.cpus.inst   5185637895                       # number of ReadReq MSHR miss cycles
system.cpu_cluster.cpus.icache.ReadReq_mshr_miss_latency::total   5185637895                       # number of ReadReq MSHR miss cycles
system.cpu_cluster.cpus.icache.ReadReq_mshr_miss_rate::.cpu_cluster.cpus.inst     0.011367                       # mshr miss rate for ReadReq accesses
system.cpu_cluster.cpus.icache.ReadReq_mshr_miss_rate::total     0.011367                       # mshr miss rate for ReadReq accesses
system.cpu_cluster.cpus.icache.ReadReq_avg_mshr_miss_latency::.cpu_cluster.cpus.inst 68901.143937                       # average ReadReq mshr miss latency
system.cpu_cluster.cpus.icache.ReadReq_avg_mshr_miss_latency::total 68901.143937                       # average ReadReq mshr miss latency
system.cpu_cluster.cpus.icache.tags.pwrStateResidencyTicks::UNDEFINED  14015766807                       # Cumulative time (in ticks) in various power states
system.cpu_cluster.cpus.icache.tags.tagsinuse   508.083068                       # Cycle average of tags in use
system.cpu_cluster.cpus.icache.tags.total_refs      6621141                       # Total number of references to valid blocks.
system.cpu_cluster.cpus.icache.tags.sampled_refs        75261                       # Sample count of references to valid blocks.
system.cpu_cluster.cpus.icache.tags.avg_refs    87.975724                       # Average number of references to valid blocks.
system.cpu_cluster.cpus.icache.tags.warmup_cycle        92000                       # Cycle when the warmup percentage was hit.
system.cpu_cluster.cpus.icache.tags.occ_blocks::.cpu_cluster.cpus.inst   508.083068                       # Average occupied blocks per requestor
system.cpu_cluster.cpus.icache.tags.occ_percent::.cpu_cluster.cpus.inst     0.992350                       # Average percentage of cache occupancy
system.cpu_cluster.cpus.icache.tags.occ_percent::total     0.992350                       # Average percentage of cache occupancy
system.cpu_cluster.cpus.icache.tags.occ_task_id_blocks::1024          512                       # Occupied blocks per task id
system.cpu_cluster.cpus.icache.tags.age_task_id_blocks_1024::0           92                       # Occupied blocks per task id
system.cpu_cluster.cpus.icache.tags.age_task_id_blocks_1024::1          266                       # Occupied blocks per task id
system.cpu_cluster.cpus.icache.tags.age_task_id_blocks_1024::2           13                       # Occupied blocks per task id
system.cpu_cluster.cpus.icache.tags.age_task_id_blocks_1024::3           57                       # Occupied blocks per task id
system.cpu_cluster.cpus.icache.tags.age_task_id_blocks_1024::4           84                       # Occupied blocks per task id
system.cpu_cluster.cpus.icache.tags.occ_task_id_percent::1024            1                       # Percentage of cache occupancy per task id
system.cpu_cluster.cpus.icache.tags.tag_accesses     13317545                       # Number of tag accesses
system.cpu_cluster.cpus.icache.tags.data_accesses     13317545                       # Number of data accesses
system.cpu_cluster.cpus.dtb.walker.pwrStateResidencyTicks::UNDEFINED  14015766807                       # Cumulative time (in ticks) in various power states
system.cpu_cluster.cpus.dtb.stage2_mmu.stage2_tlb.walker.pwrStateResidencyTicks::UNDEFINED  14015766807                       # Cumulative time (in ticks) in various power states
system.cpu_cluster.cpus.dcache.pwrStateResidencyTicks::UNDEFINED  14015766807                       # Cumulative time (in ticks) in various power states
system.cpu_cluster.cpus.dcache.demand_hits::.cpu_cluster.cpus.data      7695304                       # number of demand (read+write) hits
system.cpu_cluster.cpus.dcache.demand_hits::total      7695304                       # number of demand (read+write) hits
system.cpu_cluster.cpus.dcache.overall_hits::.cpu_cluster.cpus.data      7695304                       # number of overall hits
system.cpu_cluster.cpus.dcache.overall_hits::total      7695304                       # number of overall hits
system.cpu_cluster.cpus.dcache.demand_misses::.cpu_cluster.cpus.data        15267                       # number of demand (read+write) misses
system.cpu_cluster.cpus.dcache.demand_misses::total        15267                       # number of demand (read+write) misses
system.cpu_cluster.cpus.dcache.overall_misses::.cpu_cluster.cpus.data        15267                       # number of overall misses
system.cpu_cluster.cpus.dcache.overall_misses::total        15267                       # number of overall misses
system.cpu_cluster.cpus.dcache.demand_miss_latency::.cpu_cluster.cpus.data   1049870119                       # number of demand (read+write) miss cycles
system.cpu_cluster.cpus.dcache.demand_miss_latency::total   1049870119                       # number of demand (read+write) miss cycles
system.cpu_cluster.cpus.dcache.overall_miss_latency::.cpu_cluster.cpus.data   1049870119                       # number of overall miss cycles
system.cpu_cluster.cpus.dcache.overall_miss_latency::total   1049870119                       # number of overall miss cycles
system.cpu_cluster.cpus.dcache.demand_accesses::.cpu_cluster.cpus.data      7710571                       # number of demand (read+write) accesses
system.cpu_cluster.cpus.dcache.demand_accesses::total      7710571                       # number of demand (read+write) accesses
system.cpu_cluster.cpus.dcache.overall_accesses::.cpu_cluster.cpus.data      7710571                       # number of overall (read+write) accesses
system.cpu_cluster.cpus.dcache.overall_accesses::total      7710571                       # number of overall (read+write) accesses
system.cpu_cluster.cpus.dcache.demand_miss_rate::.cpu_cluster.cpus.data     0.001980                       # miss rate for demand accesses
system.cpu_cluster.cpus.dcache.demand_miss_rate::total     0.001980                       # miss rate for demand accesses
system.cpu_cluster.cpus.dcache.overall_miss_rate::.cpu_cluster.cpus.data     0.001980                       # miss rate for overall accesses
system.cpu_cluster.cpus.dcache.overall_miss_rate::total     0.001980                       # miss rate for overall accesses
system.cpu_cluster.cpus.dcache.demand_avg_miss_latency::.cpu_cluster.cpus.data 68767.283618                       # average overall miss latency
system.cpu_cluster.cpus.dcache.demand_avg_miss_latency::total 68767.283618                       # average overall miss latency
system.cpu_cluster.cpus.dcache.overall_avg_miss_latency::.cpu_cluster.cpus.data 68767.283618                       # average overall miss latency
system.cpu_cluster.cpus.dcache.overall_avg_miss_latency::total 68767.283618                       # average overall miss latency
system.cpu_cluster.cpus.dcache.blocked_cycles::no_mshrs            0                       # number of cycles access was blocked
system.cpu_cluster.cpus.dcache.blocked_cycles::no_targets            0                       # number of cycles access was blocked
system.cpu_cluster.cpus.dcache.blocked::no_mshrs            0                       # number of cycles access was blocked
system.cpu_cluster.cpus.dcache.blocked::no_targets            0                       # number of cycles access was blocked
system.cpu_cluster.cpus.dcache.avg_blocked_cycles::no_mshrs          nan                       # average number of cycles each access was blocked
system.cpu_cluster.cpus.dcache.avg_blocked_cycles::no_targets          nan                       # average number of cycles each access was blocked
system.cpu_cluster.cpus.dcache.writebacks::.writebacks         7206                       # number of writebacks
system.cpu_cluster.cpus.dcache.writebacks::total         7206                       # number of writebacks
system.cpu_cluster.cpus.dcache.demand_mshr_hits::.cpu_cluster.cpus.data         2157                       # number of demand (read+write) MSHR hits
system.cpu_cluster.cpus.dcache.demand_mshr_hits::total         2157                       # number of demand (read+write) MSHR hits
system.cpu_cluster.cpus.dcache.overall_mshr_hits::.cpu_cluster.cpus.data         2157                       # number of overall MSHR hits
system.cpu_cluster.cpus.dcache.overall_mshr_hits::total         2157                       # number of overall MSHR hits
system.cpu_cluster.cpus.dcache.demand_mshr_misses::.cpu_cluster.cpus.data        13110                       # number of demand (read+write) MSHR misses
system.cpu_cluster.cpus.dcache.demand_mshr_misses::total        13110                       # number of demand (read+write) MSHR misses
system.cpu_cluster.cpus.dcache.overall_mshr_misses::.cpu_cluster.cpus.data        13110                       # number of overall MSHR misses
system.cpu_cluster.cpus.dcache.overall_mshr_misses::total        13110                       # number of overall MSHR misses
system.cpu_cluster.cpus.dcache.demand_mshr_miss_latency::.cpu_cluster.cpus.data    906523732                       # number of demand (read+write) MSHR miss cycles
system.cpu_cluster.cpus.dcache.demand_mshr_miss_latency::total    906523732                       # number of demand (read+write) MSHR miss cycles
system.cpu_cluster.cpus.dcache.overall_mshr_miss_latency::.cpu_cluster.cpus.data    906523732                       # number of overall MSHR miss cycles
system.cpu_cluster.cpus.dcache.overall_mshr_miss_latency::total    906523732                       # number of overall MSHR miss cycles
system.cpu_cluster.cpus.dcache.demand_mshr_miss_rate::.cpu_cluster.cpus.data     0.001700                       # mshr miss rate for demand accesses
system.cpu_cluster.cpus.dcache.demand_mshr_miss_rate::total     0.001700                       # mshr miss rate for demand accesses
system.cpu_cluster.cpus.dcache.overall_mshr_miss_rate::.cpu_cluster.cpus.data     0.001700                       # mshr miss rate for overall accesses
system.cpu_cluster.cpus.dcache.overall_mshr_miss_rate::total     0.001700                       # mshr miss rate for overall accesses
system.cpu_cluster.cpus.dcache.demand_avg_mshr_miss_latency::.cpu_cluster.cpus.data 69147.500534                       # average overall mshr miss latency
system.cpu_cluster.cpus.dcache.demand_avg_mshr_miss_latency::total 69147.500534                       # average overall mshr miss latency
system.cpu_cluster.cpus.dcache.overall_avg_mshr_miss_latency::.cpu_cluster.cpus.data 69147.500534                       # average overall mshr miss latency
system.cpu_cluster.cpus.dcache.overall_avg_mshr_miss_latency::total 69147.500534                       # average overall mshr miss latency
system.cpu_cluster.cpus.dcache.replacements        12602                       # number of replacements
system.cpu_cluster.cpus.dcache.ReadReq_hits::.cpu_cluster.cpus.data      4071437                       # number of ReadReq hits
system.cpu_cluster.cpus.dcache.ReadReq_hits::total      4071437                       # number of ReadReq hits
system.cpu_cluster.cpus.dcache.ReadReq_misses::.cpu_cluster.cpus.data         9118                       # number of ReadReq misses
system.cpu_cluster.cpus.dcache.ReadReq_misses::total         9118                       # number of ReadReq misses
system.cpu_cluster.cpus.dcache.ReadReq_miss_latency::.cpu_cluster.cpus.data    615311041                       # number of ReadReq miss cycles
system.cpu_cluster.cpus.dcache.ReadReq_miss_latency::total    615311041                       # number of ReadReq miss cycles
system.cpu_cluster.cpus.dcache.ReadReq_accesses::.cpu_cluster.cpus.data      4080555                       # number of ReadReq accesses(hits+misses)
system.cpu_cluster.cpus.dcache.ReadReq_accesses::total      4080555                       # number of ReadReq accesses(hits+misses)
system.cpu_cluster.cpus.dcache.ReadReq_miss_rate::.cpu_cluster.cpus.data     0.002234                       # miss rate for ReadReq accesses
system.cpu_cluster.cpus.dcache.ReadReq_miss_rate::total     0.002234                       # miss rate for ReadReq accesses
system.cpu_cluster.cpus.dcache.ReadReq_avg_miss_latency::.cpu_cluster.cpus.data 67483.114828                       # average ReadReq miss latency
system.cpu_cluster.cpus.dcache.ReadReq_avg_miss_latency::total 67483.114828                       # average ReadReq miss latency
system.cpu_cluster.cpus.dcache.ReadReq_mshr_hits::.cpu_cluster.cpus.data           31                       # number of ReadReq MSHR hits
system.cpu_cluster.cpus.dcache.ReadReq_mshr_hits::total           31                       # number of ReadReq MSHR hits
system.cpu_cluster.cpus.dcache.ReadReq_mshr_misses::.cpu_cluster.cpus.data         9087                       # number of ReadReq MSHR misses
system.cpu_cluster.cpus.dcache.ReadReq_mshr_misses::total         9087                       # number of ReadReq MSHR misses
system.cpu_cluster.cpus.dcache.ReadReq_mshr_miss_latency::.cpu_cluster.cpus.data    605270419                       # number of ReadReq MSHR miss cycles
system.cpu_cluster.cpus.dcache.ReadReq_mshr_miss_latency::total    605270419                       # number of ReadReq MSHR miss cycles
system.cpu_cluster.cpus.dcache.ReadReq_mshr_miss_rate::.cpu_cluster.cpus.data     0.002227                       # mshr miss rate for ReadReq accesses
system.cpu_cluster.cpus.dcache.ReadReq_mshr_miss_rate::total     0.002227                       # mshr miss rate for ReadReq accesses
system.cpu_cluster.cpus.dcache.ReadReq_avg_mshr_miss_latency::.cpu_cluster.cpus.data 66608.387697                       # average ReadReq mshr miss latency
system.cpu_cluster.cpus.dcache.ReadReq_avg_mshr_miss_latency::total 66608.387697                       # average ReadReq mshr miss latency
system.cpu_cluster.cpus.dcache.WriteReq_hits::.cpu_cluster.cpus.data      3623866                       # number of WriteReq hits
system.cpu_cluster.cpus.dcache.WriteReq_hits::total      3623866                       # number of WriteReq hits
system.cpu_cluster.cpus.dcache.WriteReq_misses::.cpu_cluster.cpus.data         6135                       # number of WriteReq misses
system.cpu_cluster.cpus.dcache.WriteReq_misses::total         6135                       # number of WriteReq misses
system.cpu_cluster.cpus.dcache.WriteReq_miss_latency::.cpu_cluster.cpus.data    434409852                       # number of WriteReq miss cycles
system.cpu_cluster.cpus.dcache.WriteReq_miss_latency::total    434409852                       # number of WriteReq miss cycles
system.cpu_cluster.cpus.dcache.WriteReq_accesses::.cpu_cluster.cpus.data      3630001                       # number of WriteReq accesses(hits+misses)
system.cpu_cluster.cpus.dcache.WriteReq_accesses::total      3630001                       # number of WriteReq accesses(hits+misses)
system.cpu_cluster.cpus.dcache.WriteReq_miss_rate::.cpu_cluster.cpus.data     0.001690                       # miss rate for WriteReq accesses
system.cpu_cluster.cpus.dcache.WriteReq_miss_rate::total     0.001690                       # miss rate for WriteReq accesses
system.cpu_cluster.cpus.dcache.WriteReq_avg_miss_latency::.cpu_cluster.cpus.data 70808.451834                       # average WriteReq miss latency
system.cpu_cluster.cpus.dcache.WriteReq_avg_miss_latency::total 70808.451834                       # average WriteReq miss latency
system.cpu_cluster.cpus.dcache.WriteReq_mshr_hits::.cpu_cluster.cpus.data         2126                       # number of WriteReq MSHR hits
system.cpu_cluster.cpus.dcache.WriteReq_mshr_hits::total         2126                       # number of WriteReq MSHR hits
system.cpu_cluster.cpus.dcache.WriteReq_mshr_misses::.cpu_cluster.cpus.data         4009                       # number of WriteReq MSHR misses
system.cpu_cluster.cpus.dcache.WriteReq_mshr_misses::total         4009                       # number of WriteReq MSHR misses
system.cpu_cluster.cpus.dcache.WriteReq_mshr_miss_latency::.cpu_cluster.cpus.data    301116113                       # number of WriteReq MSHR miss cycles
system.cpu_cluster.cpus.dcache.WriteReq_mshr_miss_latency::total    301116113                       # number of WriteReq MSHR miss cycles
system.cpu_cluster.cpus.dcache.WriteReq_mshr_miss_rate::.cpu_cluster.cpus.data     0.001104                       # mshr miss rate for WriteReq accesses
system.cpu_cluster.cpus.dcache.WriteReq_mshr_miss_rate::total     0.001104                       # mshr miss rate for WriteReq accesses
system.cpu_cluster.cpus.dcache.WriteReq_avg_mshr_miss_latency::.cpu_cluster.cpus.data 75110.030681                       # average WriteReq mshr miss latency
system.cpu_cluster.cpus.dcache.WriteReq_avg_mshr_miss_latency::total 75110.030681                       # average WriteReq mshr miss latency
system.cpu_cluster.cpus.dcache.WriteLineReq_hits::.cpu_cluster.cpus.data            1                       # number of WriteLineReq hits
system.cpu_cluster.cpus.dcache.WriteLineReq_hits::total            1                       # number of WriteLineReq hits
system.cpu_cluster.cpus.dcache.WriteLineReq_misses::.cpu_cluster.cpus.data           14                       # number of WriteLineReq misses
system.cpu_cluster.cpus.dcache.WriteLineReq_misses::total           14                       # number of WriteLineReq misses
system.cpu_cluster.cpus.dcache.WriteLineReq_miss_latency::.cpu_cluster.cpus.data       149226                       # number of WriteLineReq miss cycles
system.cpu_cluster.cpus.dcache.WriteLineReq_miss_latency::total       149226                       # number of WriteLineReq miss cycles
system.cpu_cluster.cpus.dcache.WriteLineReq_accesses::.cpu_cluster.cpus.data           15                       # number of WriteLineReq accesses(hits+misses)
system.cpu_cluster.cpus.dcache.WriteLineReq_accesses::total           15                       # number of WriteLineReq accesses(hits+misses)
system.cpu_cluster.cpus.dcache.WriteLineReq_miss_rate::.cpu_cluster.cpus.data     0.933333                       # miss rate for WriteLineReq accesses
system.cpu_cluster.cpus.dcache.WriteLineReq_miss_rate::total     0.933333                       # miss rate for WriteLineReq accesses
system.cpu_cluster.cpus.dcache.WriteLineReq_avg_miss_latency::.cpu_cluster.cpus.data        10659                       # average WriteLineReq miss latency
system.cpu_cluster.cpus.dcache.WriteLineReq_avg_miss_latency::total        10659                       # average WriteLineReq miss latency
system.cpu_cluster.cpus.dcache.WriteLineReq_mshr_misses::.cpu_cluster.cpus.data           14                       # number of WriteLineReq MSHR misses
system.cpu_cluster.cpus.dcache.WriteLineReq_mshr_misses::total           14                       # number of WriteLineReq MSHR misses
system.cpu_cluster.cpus.dcache.WriteLineReq_mshr_miss_latency::.cpu_cluster.cpus.data       137200                       # number of WriteLineReq MSHR miss cycles
system.cpu_cluster.cpus.dcache.WriteLineReq_mshr_miss_latency::total       137200                       # number of WriteLineReq MSHR miss cycles
system.cpu_cluster.cpus.dcache.WriteLineReq_mshr_miss_rate::.cpu_cluster.cpus.data     0.933333                       # mshr miss rate for WriteLineReq accesses
system.cpu_cluster.cpus.dcache.WriteLineReq_mshr_miss_rate::total     0.933333                       # mshr miss rate for WriteLineReq accesses
system.cpu_cluster.cpus.dcache.WriteLineReq_avg_mshr_miss_latency::.cpu_cluster.cpus.data         9800                       # average WriteLineReq mshr miss latency
system.cpu_cluster.cpus.dcache.WriteLineReq_avg_mshr_miss_latency::total         9800                       # average WriteLineReq mshr miss latency
system.cpu_cluster.cpus.dcache.LoadLockedReq_hits::.cpu_cluster.cpus.data           23                       # number of LoadLockedReq hits
system.cpu_cluster.cpus.dcache.LoadLockedReq_hits::total           23                       # number of LoadLockedReq hits
system.cpu_cluster.cpus.dcache.LoadLockedReq_misses::.cpu_cluster.cpus.data            1                       # number of LoadLockedReq misses
system.cpu_cluster.cpus.dcache.LoadLockedReq_misses::total            1                       # number of LoadLockedReq misses
system.cpu_cluster.cpus.dcache.LoadLockedReq_miss_latency::.cpu_cluster.cpus.data        93177                       # number of LoadLockedReq miss cycles
system.cpu_cluster.cpus.dcache.LoadLockedReq_miss_latency::total        93177                       # number of LoadLockedReq miss cycles
system.cpu_cluster.cpus.dcache.LoadLockedReq_accesses::.cpu_cluster.cpus.data           24                       # number of LoadLockedReq accesses(hits+misses)
system.cpu_cluster.cpus.dcache.LoadLockedReq_accesses::total           24                       # number of LoadLockedReq accesses(hits+misses)
system.cpu_cluster.cpus.dcache.LoadLockedReq_miss_rate::.cpu_cluster.cpus.data     0.041667                       # miss rate for LoadLockedReq accesses
system.cpu_cluster.cpus.dcache.LoadLockedReq_miss_rate::total     0.041667                       # miss rate for LoadLockedReq accesses
system.cpu_cluster.cpus.dcache.LoadLockedReq_avg_miss_latency::.cpu_cluster.cpus.data        93177                       # average LoadLockedReq miss latency
system.cpu_cluster.cpus.dcache.LoadLockedReq_avg_miss_latency::total        93177                       # average LoadLockedReq miss latency
system.cpu_cluster.cpus.dcache.LoadLockedReq_mshr_misses::.cpu_cluster.cpus.data            1                       # number of LoadLockedReq MSHR misses
system.cpu_cluster.cpus.dcache.LoadLockedReq_mshr_misses::total            1                       # number of LoadLockedReq MSHR misses
system.cpu_cluster.cpus.dcache.LoadLockedReq_mshr_miss_latency::.cpu_cluster.cpus.data        92251                       # number of LoadLockedReq MSHR miss cycles
system.cpu_cluster.cpus.dcache.LoadLockedReq_mshr_miss_latency::total        92251                       # number of LoadLockedReq MSHR miss cycles
system.cpu_cluster.cpus.dcache.LoadLockedReq_mshr_miss_rate::.cpu_cluster.cpus.data     0.041667                       # mshr miss rate for LoadLockedReq accesses
system.cpu_cluster.cpus.dcache.LoadLockedReq_mshr_miss_rate::total     0.041667                       # mshr miss rate for LoadLockedReq accesses
system.cpu_cluster.cpus.dcache.LoadLockedReq_avg_mshr_miss_latency::.cpu_cluster.cpus.data        92251                       # average LoadLockedReq mshr miss latency
system.cpu_cluster.cpus.dcache.LoadLockedReq_avg_mshr_miss_latency::total        92251                       # average LoadLockedReq mshr miss latency
system.cpu_cluster.cpus.dcache.StoreCondReq_hits::.cpu_cluster.cpus.data           24                       # number of StoreCondReq hits
system.cpu_cluster.cpus.dcache.StoreCondReq_hits::total           24                       # number of StoreCondReq hits
system.cpu_cluster.cpus.dcache.StoreCondReq_accesses::.cpu_cluster.cpus.data           24                       # number of StoreCondReq accesses(hits+misses)
system.cpu_cluster.cpus.dcache.StoreCondReq_accesses::total           24                       # number of StoreCondReq accesses(hits+misses)
system.cpu_cluster.cpus.dcache.SwapReq_hits::.cpu_cluster.cpus.data          489                       # number of SwapReq hits
system.cpu_cluster.cpus.dcache.SwapReq_hits::total          489                       # number of SwapReq hits
system.cpu_cluster.cpus.dcache.SwapReq_misses::.cpu_cluster.cpus.data            3                       # number of SwapReq misses
system.cpu_cluster.cpus.dcache.SwapReq_misses::total            3                       # number of SwapReq misses
system.cpu_cluster.cpus.dcache.SwapReq_miss_latency::.cpu_cluster.cpus.data       278460                       # number of SwapReq miss cycles
system.cpu_cluster.cpus.dcache.SwapReq_miss_latency::total       278460                       # number of SwapReq miss cycles
system.cpu_cluster.cpus.dcache.SwapReq_accesses::.cpu_cluster.cpus.data          492                       # number of SwapReq accesses(hits+misses)
system.cpu_cluster.cpus.dcache.SwapReq_accesses::total          492                       # number of SwapReq accesses(hits+misses)
system.cpu_cluster.cpus.dcache.SwapReq_miss_rate::.cpu_cluster.cpus.data     0.006098                       # miss rate for SwapReq accesses
system.cpu_cluster.cpus.dcache.SwapReq_miss_rate::total     0.006098                       # miss rate for SwapReq accesses
system.cpu_cluster.cpus.dcache.SwapReq_avg_miss_latency::.cpu_cluster.cpus.data        92820                       # average SwapReq miss latency
system.cpu_cluster.cpus.dcache.SwapReq_avg_miss_latency::total        92820                       # average SwapReq miss latency
system.cpu_cluster.cpus.dcache.SwapReq_mshr_misses::.cpu_cluster.cpus.data            3                       # number of SwapReq MSHR misses
system.cpu_cluster.cpus.dcache.SwapReq_mshr_misses::total            3                       # number of SwapReq MSHR misses
system.cpu_cluster.cpus.dcache.SwapReq_mshr_miss_latency::.cpu_cluster.cpus.data       276059                       # number of SwapReq MSHR miss cycles
system.cpu_cluster.cpus.dcache.SwapReq_mshr_miss_latency::total       276059                       # number of SwapReq MSHR miss cycles
system.cpu_cluster.cpus.dcache.SwapReq_mshr_miss_rate::.cpu_cluster.cpus.data     0.006098                       # mshr miss rate for SwapReq accesses
system.cpu_cluster.cpus.dcache.SwapReq_mshr_miss_rate::total     0.006098                       # mshr miss rate for SwapReq accesses
system.cpu_cluster.cpus.dcache.SwapReq_avg_mshr_miss_latency::.cpu_cluster.cpus.data 92019.666667                       # average SwapReq mshr miss latency
system.cpu_cluster.cpus.dcache.SwapReq_avg_mshr_miss_latency::total 92019.666667                       # average SwapReq mshr miss latency
system.cpu_cluster.cpus.dcache.tags.pwrStateResidencyTicks::UNDEFINED  14015766807                       # Cumulative time (in ticks) in various power states
system.cpu_cluster.cpus.dcache.tags.tagsinuse   509.120679                       # Cycle average of tags in use
system.cpu_cluster.cpus.dcache.tags.total_refs      7708954                       # Total number of references to valid blocks.
system.cpu_cluster.cpus.dcache.tags.sampled_refs        13114                       # Sample count of references to valid blocks.
system.cpu_cluster.cpus.dcache.tags.avg_refs   587.841543                       # Average number of references to valid blocks.
system.cpu_cluster.cpus.dcache.tags.warmup_cycle       170000                       # Cycle when the warmup percentage was hit.
system.cpu_cluster.cpus.dcache.tags.occ_blocks::.cpu_cluster.cpus.data   509.120679                       # Average occupied blocks per requestor
system.cpu_cluster.cpus.dcache.tags.occ_percent::.cpu_cluster.cpus.data     0.994376                       # Average percentage of cache occupancy
system.cpu_cluster.cpus.dcache.tags.occ_percent::total     0.994376                       # Average percentage of cache occupancy
system.cpu_cluster.cpus.dcache.tags.occ_task_id_blocks::1024          512                       # Occupied blocks per task id
system.cpu_cluster.cpus.dcache.tags.age_task_id_blocks_1024::0           46                       # Occupied blocks per task id
system.cpu_cluster.cpus.dcache.tags.age_task_id_blocks_1024::1          352                       # Occupied blocks per task id
system.cpu_cluster.cpus.dcache.tags.age_task_id_blocks_1024::2          101                       # Occupied blocks per task id
system.cpu_cluster.cpus.dcache.tags.age_task_id_blocks_1024::3           10                       # Occupied blocks per task id
system.cpu_cluster.cpus.dcache.tags.age_task_id_blocks_1024::4            3                       # Occupied blocks per task id
system.cpu_cluster.cpus.dcache.tags.occ_task_id_percent::1024            1                       # Percentage of cache occupancy per task id
system.cpu_cluster.cpus.dcache.tags.tag_accesses     30857558                       # Number of tag accesses
system.cpu_cluster.cpus.dcache.tags.data_accesses     30857558                       # Number of data accesses
system.cpu_cluster.cpus.itb.walker.pwrStateResidencyTicks::UNDEFINED  14015766807                       # Cumulative time (in ticks) in various power states
system.cpu_cluster.cpus.itb.stage2_mmu.stage2_tlb.walker.pwrStateResidencyTicks::UNDEFINED  14015766807                       # Cumulative time (in ticks) in various power states
system.mem_ctrls.pwrStateResidencyTicks::UNDEFINED  14015766807                       # Cumulative time (in ticks) in various power states
system.mem_ctrls.bytes_read::.cpu_cluster.cpus.inst      4816704                       # Number of bytes read from this memory
system.mem_ctrls.bytes_read::.cpu_cluster.cpus.data       838400                       # Number of bytes read from this memory
system.mem_ctrls.bytes_read::total            5655104                       # Number of bytes read from this memory
system.mem_ctrls.bytes_inst_read::.cpu_cluster.cpus.inst      4816704                       # Number of instructions bytes read from this memory
system.mem_ctrls.bytes_inst_read::total       4816704                       # Number of instructions bytes read from this memory
system.mem_ctrls.bytes_written::.writebacks       461184                       # Number of bytes written to this memory
system.mem_ctrls.bytes_written::total          461184                       # Number of bytes written to this memory
system.mem_ctrls.num_reads::.cpu_cluster.cpus.inst        75261                       # Number of read requests responded to by this memory
system.mem_ctrls.num_reads::.cpu_cluster.cpus.data        13100                       # Number of read requests responded to by this memory
system.mem_ctrls.num_reads::total               88361                       # Number of read requests responded to by this memory
system.mem_ctrls.num_writes::.writebacks         7206                       # Number of write requests responded to by this memory
system.mem_ctrls.num_writes::total               7206                       # Number of write requests responded to by this memory
system.mem_ctrls.bw_read::.cpu_cluster.cpus.inst    343663252                       # Total read bandwidth from this memory (bytes/s)
system.mem_ctrls.bw_read::.cpu_cluster.cpus.data     59818347                       # Total read bandwidth from this memory (bytes/s)
system.mem_ctrls.bw_read::total             403481599                       # Total read bandwidth from this memory (bytes/s)
system.mem_ctrls.bw_inst_read::.cpu_cluster.cpus.inst    343663252                       # Instruction read bandwidth from this memory (bytes/s)
system.mem_ctrls.bw_inst_read::total        343663252                       # Instruction read bandwidth from this memory (bytes/s)
system.mem_ctrls.bw_write::.writebacks       32904657                       # Write bandwidth from this memory (bytes/s)
system.mem_ctrls.bw_write::total             32904657                       # Write bandwidth from this memory (bytes/s)
system.mem_ctrls.bw_total::.writebacks       32904657                       # Total bandwidth to/from this memory (bytes/s)
system.mem_ctrls.bw_total::.cpu_cluster.cpus.inst    343663252                       # Total bandwidth to/from this memory (bytes/s)
system.mem_ctrls.bw_total::.cpu_cluster.cpus.data     59818347                       # Total bandwidth to/from this memory (bytes/s)
system.mem_ctrls.bw_total::total            436386256                       # Total bandwidth to/from this memory (bytes/s)
system.mem_ctrls.avgPriority_.writebacks::samples     12333.00                       # Average QoS priority value for accepted requests
system.mem_ctrls.avgPriority_.cpu_cluster.cpus.inst::samples    150524.00                       # Average QoS priority value for accepted requests
system.mem_ctrls.avgPriority_.cpu_cluster.cpus.data::samples     23144.00                       # Average QoS priority value for accepted requests
system.mem_ctrls.priorityMinLatency      0.000000020000                       # per QoS priority minimum request to response latency (s)
system.mem_ctrls.priorityMaxLatency      0.000397451116                       # per QoS priority maximum request to response latency (s)
system.mem_ctrls.numReadWriteTurnArounds          726                       # Number of turnarounds from READ to WRITE
system.mem_ctrls.numWriteReadTurnArounds          726                       # Number of turnarounds from WRITE to READ
system.mem_ctrls.numStayReadState              270525                       # Number of times bus staying in READ state
system.mem_ctrls.numStayWriteState              11602                       # Number of times bus staying in WRITE state
system.mem_ctrls.readReqs                       88362                       # Number of read requests accepted
system.mem_ctrls.writeReqs                       7206                       # Number of write requests accepted
system.mem_ctrls.readBursts                    176724                       # Number of DRAM read bursts, including those serviced by the write queue
system.mem_ctrls.writeBursts                    14412                       # Number of DRAM write bursts, including those merged in the write queue
system.mem_ctrls.servicedByWrQ                   3056                       # Number of DRAM read bursts serviced by the write queue
system.mem_ctrls.mergedWrBursts                  2079                       # Number of DRAM write bursts merged with an existing one
system.mem_ctrls.neitherReadNorWriteReqs            0                       # Number of requests that are neither read nor write
system.mem_ctrls.perBankRdBursts::0             18626                       # Per bank write bursts
system.mem_ctrls.perBankRdBursts::1             16795                       # Per bank write bursts
system.mem_ctrls.perBankRdBursts::2             34062                       # Per bank write bursts
system.mem_ctrls.perBankRdBursts::3             23786                       # Per bank write bursts
system.mem_ctrls.perBankRdBursts::4              6685                       # Per bank write bursts
system.mem_ctrls.perBankRdBursts::5              8738                       # Per bank write bursts
system.mem_ctrls.perBankRdBursts::6             36982                       # Per bank write bursts
system.mem_ctrls.perBankRdBursts::7             27994                       # Per bank write bursts
system.mem_ctrls.perBankWrBursts::0              1571                       # Per bank write bursts
system.mem_ctrls.perBankWrBursts::1              1298                       # Per bank write bursts
system.mem_ctrls.perBankWrBursts::2              1874                       # Per bank write bursts
system.mem_ctrls.perBankWrBursts::3              1374                       # Per bank write bursts
system.mem_ctrls.perBankWrBursts::4              1793                       # Per bank write bursts
system.mem_ctrls.perBankWrBursts::5              1342                       # Per bank write bursts
system.mem_ctrls.perBankWrBursts::6              1493                       # Per bank write bursts
system.mem_ctrls.perBankWrBursts::7              1560                       # Per bank write bursts
system.mem_ctrls.avgRdQLen                       2.05                       # Average read queue length when enqueuing
system.mem_ctrls.avgWrQLen                      25.59                       # Average write queue length when enqueuing
system.mem_ctrls.totQLat                   2757276290                       # Total ticks spent queuing
system.mem_ctrls.totBusLat                  868340000                       # Total ticks spent in databus transfers
system.mem_ctrls.totMemAccLat              6230636290                       # Total ticks spent from burst creation until serviced by the DRAM
system.mem_ctrls.avgQLat                     15876.71                       # Average queueing delay per DRAM burst
system.mem_ctrls.avgBusLat                    5000.00                       # Average bus latency per DRAM burst
system.mem_ctrls.avgMemAccLat                35876.71                       # Average memory access latency per DRAM burst
system.mem_ctrls.numRdRetry                         0                       # Number of times read queue was full causing retry
system.mem_ctrls.numWrRetry                         0                       # Number of times write queue was full causing retry
system.mem_ctrls.readRowHits                   140742                       # Number of row buffer hits during reads
system.mem_ctrls.writeRowHits                    9687                       # Number of row buffer hits during writes
system.mem_ctrls.readRowHitRate                 81.04                       # Row buffer hit rate for reads
system.mem_ctrls.writeRowHitRate                78.55                       # Row buffer hit rate for writes
system.mem_ctrls.readPktSize::0                     0                       # Read request sizes (log2)
system.mem_ctrls.readPktSize::1                     0                       # Read request sizes (log2)
system.mem_ctrls.readPktSize::2                     0                       # Read request sizes (log2)
system.mem_ctrls.readPktSize::3                     0                       # Read request sizes (log2)
system.mem_ctrls.readPktSize::4                     0                       # Read request sizes (log2)
system.mem_ctrls.readPktSize::5                176724                       # Read request sizes (log2)
system.mem_ctrls.writePktSize::0                    0                       # Write request sizes (log2)
system.mem_ctrls.writePktSize::1                    0                       # Write request sizes (log2)
system.mem_ctrls.writePktSize::2                    0                       # Write request sizes (log2)
system.mem_ctrls.writePktSize::3                    0                       # Write request sizes (log2)
system.mem_ctrls.writePktSize::4                    0                       # Write request sizes (log2)
system.mem_ctrls.writePktSize::5                14412                       # Write request sizes (log2)
system.mem_ctrls.rdQLenPdf::0                   84379                       # What read queue length does an incoming req see
system.mem_ctrls.rdQLenPdf::1                   84886                       # What read queue length does an incoming req see
system.mem_ctrls.rdQLenPdf::2                    2440                       # What read queue length does an incoming req see
system.mem_ctrls.rdQLenPdf::3                    1919                       # What read queue length does an incoming req see
[...]
system.mem_ctrls.wrQLenPdf::5                       1                       # What write queue length does an incoming req see
system.mem_ctrls.wrQLenPdf::6                       1                       # What write queue length does an incoming req see
system.mem_ctrls.wrQLenPdf::7                       1                       # What write queue length does an incoming req see
system.mem_ctrls.wrQLenPdf::8                       1                       # What write queue length does an incoming req see
system.mem_ctrls.wrQLenPdf::9                       1                       # What write queue length does an incoming req see
system.mem_ctrls.wrQLenPdf::10                      1                       # What write queue length does an incoming req see
system.mem_ctrls.wrQLenPdf::11                      1                       # What write queue length does an incoming req see
system.mem_ctrls.wrQLenPdf::12                      1                       # What write queue length does an incoming req see
system.mem_ctrls.wrQLenPdf::13                      1                       # What write queue length does an incoming req see
system.mem_ctrls.wrQLenPdf::14                      1                       # What write queue length does an incoming req see
system.mem_ctrls.wrQLenPdf::15                    268                       # What write queue length does an incoming req see
system.mem_ctrls.wrQLenPdf::16                    290                       # What write queue length does an incoming req see
system.mem_ctrls.wrQLenPdf::17                    664                       # What write queue length does an incoming req see
system.mem_ctrls.wrQLenPdf::18                    714                       # What write queue length does an incoming req see
system.mem_ctrls.wrQLenPdf::19                    732                       # What write queue length does an incoming req see
system.mem_ctrls.wrQLenPdf::20                    731                       # What write queue length does an incoming req see
system.mem_ctrls.wrQLenPdf::21                    736                       # What write queue length does an incoming req see
system.mem_ctrls.wrQLenPdf::22                    737                       # What write queue length does an incoming req see
system.mem_ctrls.wrQLenPdf::23                    732                       # What write queue length does an incoming req see
system.mem_ctrls.wrQLenPdf::24                    743                       # What write queue length does an incoming req see
system.mem_ctrls.wrQLenPdf::25                    746                       # What write queue length does an incoming req see
system.mem_ctrls.wrQLenPdf::26                    738                       # What write queue length does an incoming req see
system.mem_ctrls.wrQLenPdf::27                    737                       # What write queue length does an incoming req see
system.mem_ctrls.wrQLenPdf::28                    738                       # What write queue length does an incoming req see
system.mem_ctrls.wrQLenPdf::29                    732                       # What write queue length does an incoming req see
system.mem_ctrls.wrQLenPdf::30                    727                       # What write queue length does an incoming req see
system.mem_ctrls.wrQLenPdf::31                    727                       # What write queue length does an incoming req see
system.mem_ctrls.wrQLenPdf::32                    726                       # What write queue length does an incoming req see
system.mem_ctrls.wrQLenPdf::33                    100                       # What write queue length does an incoming req see
system.mem_ctrls.wrQLenPdf::34                      0                       # What write queue length does an incoming req see
system.mem_ctrls.wrQLenPdf::35                      0                       # What write queue length does an incoming req see
system.mem_ctrls.wrQLenPdf::36                      0                       # What write queue length does an incoming req see
system.mem_ctrls.wrQLenPdf::37                      0                       # What write queue length does an incoming req see
system.mem_ctrls.wrQLenPdf::38                      0                       # What write queue length does an incoming req see
system.mem_ctrls.wrQLenPdf::39                      0                       # What write queue length does an incoming req see
system.mem_ctrls.wrQLenPdf::40                      0                       # What write queue length does an incoming req see
system.mem_ctrls.wrQLenPdf::41                      0                       # What write queue length does an incoming req see
system.mem_ctrls.wrQLenPdf::42                      0                       # What write queue length does an incoming req see
system.mem_ctrls.wrQLenPdf::43                      0                       # What write queue length does an incoming req see
system.mem_ctrls.wrQLenPdf::44                      0                       # What write queue length does an incoming req see
system.mem_ctrls.wrQLenPdf::45                      0                       # What write queue length does an incoming req see
system.mem_ctrls.wrQLenPdf::46                      0                       # What write queue length does an incoming req see
system.mem_ctrls.wrQLenPdf::47                      0                       # What write queue length does an incoming req see
system.mem_ctrls.wrQLenPdf::48                      0                       # What write queue length does an incoming req see
system.mem_ctrls.wrQLenPdf::49                      0                       # What write queue length does an incoming req see
system.mem_ctrls.wrQLenPdf::50                      0                       # What write queue length does an incoming req see
system.mem_ctrls.wrQLenPdf::51                      0                       # What write queue length does an incoming req see
system.mem_ctrls.wrQLenPdf::52                      0                       # What write queue length does an incoming req see
system.mem_ctrls.wrQLenPdf::53                      0                       # What write queue length does an incoming req see
system.mem_ctrls.wrQLenPdf::54                      0                       # What write queue length does an incoming req see
system.mem_ctrls.wrQLenPdf::55                      0                       # What write queue length does an incoming req see
system.mem_ctrls.wrQLenPdf::56                      0                       # What write queue length does an incoming req see
system.mem_ctrls.wrQLenPdf::57                      0                       # What write queue length does an incoming req see
system.mem_ctrls.wrQLenPdf::58                      0                       # What write queue length does an incoming req see
system.mem_ctrls.wrQLenPdf::59                      0                       # What write queue length does an incoming req see
system.mem_ctrls.wrQLenPdf::60                      0                       # What write queue length does an incoming req see
system.mem_ctrls.wrQLenPdf::61                      0                       # What write queue length does an incoming req see
system.mem_ctrls.wrQLenPdf::62                      0                       # What write queue length does an incoming req see
system.mem_ctrls.wrQLenPdf::63                      0                       # What write queue length does an incoming req see
system.mem_ctrls.bytesPerActivate::samples        35539                       # Bytes accessed per row activation
system.mem_ctrls.bytesPerActivate::mean    167.426658                       # Bytes accessed per row activation
system.mem_ctrls.bytesPerActivate::gmean   132.226179                       # Bytes accessed per row activation
system.mem_ctrls.bytesPerActivate::stdev   119.815285                       # Bytes accessed per row activation
system.mem_ctrls.bytesPerActivate::0-63           346      0.97%      0.97% # Bytes accessed per row activation
system.mem_ctrls.bytesPerActivate::64-127        13532     38.08%     39.05% # Bytes accessed per row activation
system.mem_ctrls.bytesPerActivate::128-191         6447     18.14%     57.19% # Bytes accessed per row activation
system.mem_ctrls.bytesPerActivate::192-255         6519     18.34%     75.53% # Bytes accessed per row activation
system.mem_ctrls.bytesPerActivate::256-319         3166      8.91%     84.44% # Bytes accessed per row activation
system.mem_ctrls.bytesPerActivate::320-383         2806      7.90%     92.34% # Bytes accessed per row activation
system.mem_ctrls.bytesPerActivate::384-447          652      1.83%     94.17% # Bytes accessed per row activation
system.mem_ctrls.bytesPerActivate::448-511          552      1.55%     95.73% # Bytes accessed per row activation
system.mem_ctrls.bytesPerActivate::512-575         1519      4.27%    100.00% # Bytes accessed per row activation
system.mem_ctrls.bytesPerActivate::total        35539                       # Bytes accessed per row activation
system.mem_ctrls.rdPerTurnAround::samples          726                       # Reads before turning the bus around for writes
system.mem_ctrls.rdPerTurnAround::mean     239.090909                       # Reads before turning the bus around for writes
system.mem_ctrls.rdPerTurnAround::gmean     58.992816                       # Reads before turning the bus around for writes
system.mem_ctrls.rdPerTurnAround::stdev    501.160592                       # Reads before turning the bus around for writes
system.mem_ctrls.rdPerTurnAround::0-127           590     81.27%     81.27% # Reads before turning the bus around for writes
system.mem_ctrls.rdPerTurnAround::128-255            5      0.69%     81.96% # Reads before turning the bus around for writes
system.mem_ctrls.rdPerTurnAround::256-383           21      2.89%     84.85% # Reads before turning the bus around for writes
system.mem_ctrls.rdPerTurnAround::384-511            4      0.55%     85.40% # Reads before turning the bus around for writes
system.mem_ctrls.rdPerTurnAround::512-639            7      0.96%     86.36% # Reads before turning the bus around for writes
system.mem_ctrls.rdPerTurnAround::640-767            9      1.24%     87.60% # Reads before turning the bus around for writes
system.mem_ctrls.rdPerTurnAround::768-895            7      0.96%     88.57% # Reads before turning the bus around for writes
system.mem_ctrls.rdPerTurnAround::896-1023            5      0.69%     89.26% # Reads before turning the bus around for writes
system.mem_ctrls.rdPerTurnAround::1024-1151            7      0.96%     90.22% # Reads before turning the bus around for writes
system.mem_ctrls.rdPerTurnAround::1152-1279            4      0.55%     90.77% # Reads before turning the bus around for writes
system.mem_ctrls.rdPerTurnAround::1280-1407           18      2.48%     93.25% # Reads before turning the bus around for writes
system.mem_ctrls.rdPerTurnAround::1408-1535           16      2.20%     95.45% # Reads before turning the bus around for writes
system.mem_ctrls.rdPerTurnAround::1536-1663            8      1.10%     96.56% # Reads before turning the bus around for writes
system.mem_ctrls.rdPerTurnAround::1664-1791            6      0.83%     97.38% # Reads before turning the bus around for writes
system.mem_ctrls.rdPerTurnAround::1792-1919            4      0.55%     97.93% # Reads before turning the bus around for writes
system.mem_ctrls.rdPerTurnAround::1920-2047            3      0.41%     98.35% # Reads before turning the bus around for writes
system.mem_ctrls.rdPerTurnAround::2048-2175            9      1.24%     99.59% # Reads before turning the bus around for writes
system.mem_ctrls.rdPerTurnAround::2432-2559            1      0.14%     99.72% # Reads before turning the bus around for writes
system.mem_ctrls.rdPerTurnAround::2560-2687            1      0.14%     99.86% # Reads before turning the bus around for writes
system.mem_ctrls.rdPerTurnAround::2816-2943            1      0.14%    100.00% # Reads before turning the bus around for writes
system.mem_ctrls.rdPerTurnAround::total           726                       # Reads before turning the bus around for writes
system.mem_ctrls.wrPerTurnAround::samples          726                       # Writes before turning the bus around for reads
system.mem_ctrls.wrPerTurnAround::mean      16.949036                       # Writes before turning the bus around for reads
system.mem_ctrls.wrPerTurnAround::gmean     16.903811                       # Writes before turning the bus around for reads
system.mem_ctrls.wrPerTurnAround::stdev      1.267696                       # Writes before turning the bus around for reads
system.mem_ctrls.wrPerTurnAround::16              432     59.50%     59.50% # Writes before turning the bus around for reads
system.mem_ctrls.wrPerTurnAround::17               19      2.62%     62.12% # Writes before turning the bus around for reads
system.mem_ctrls.wrPerTurnAround::18              197     27.13%     89.26% # Writes before turning the bus around for reads
system.mem_ctrls.wrPerTurnAround::19               43      5.92%     95.18% # Writes before turning the bus around for reads
system.mem_ctrls.wrPerTurnAround::20               29      3.99%     99.17% # Writes before turning the bus around for reads
system.mem_ctrls.wrPerTurnAround::21                5      0.69%     99.86% # Writes before turning the bus around for reads
system.mem_ctrls.wrPerTurnAround::22                1      0.14%    100.00% # Writes before turning the bus around for reads
system.mem_ctrls.wrPerTurnAround::total           726                       # Writes before turning the bus around for reads
system.mem_ctrls.bytesReadDRAM                5557376                       # Total number of bytes read from DRAM
system.mem_ctrls.bytesReadWrQ                   97792                       # Total number of bytes read from write queue
system.mem_ctrls.bytesWritten                  393760                       # Total number of bytes written to DRAM
system.mem_ctrls.bytesReadSys                 5655168                       # Total read bytes from the system interface side
system.mem_ctrls.bytesWrittenSys               461184                       # Total written bytes from the system interface side
system.mem_ctrls.avgRdBW                       396.51                       # Average DRAM read bandwidth in MiByte/s
system.mem_ctrls.avgWrBW                        28.09                       # Average achieved write bandwidth in MiByte/s
system.mem_ctrls.avgRdBWSys                    403.49                       # Average system read bandwidth in MiByte/s
system.mem_ctrls.avgWrBWSys                     32.90                       # Average system write bandwidth in MiByte/s
system.mem_ctrls.peakBW                       6400.00                       # Theoretical peak bandwidth in MiByte/s
system.mem_ctrls.busUtil                         6.63                       # Data bus utilization in percentage
system.mem_ctrls.busUtilRead                     6.20                       # Data bus utilization in percentage for reads
system.mem_ctrls.busUtilWrite                    0.44                       # Data bus utilization in percentage for writes
system.mem_ctrls.totGap                   14015764308                       # Total gap between requests
system.mem_ctrls.avgGap                     146657.50                       # Average gap between requests
system.mem_ctrls.masterReadBytes::.cpu_cluster.cpus.inst      4816768                       # Per-master bytes read from memory
system.mem_ctrls.masterReadBytes::.cpu_cluster.cpus.data       740608                       # Per-master bytes read from memory
system.mem_ctrls.masterWriteBytes::.writebacks       393760                       # Per-master bytes write to memory
system.mem_ctrls.masterReadRate::.cpu_cluster.cpus.inst 343667818.274082958698                       # Per-master bytes read from memory rate (Bytes/sec)
system.mem_ctrls.masterReadRate::.cpu_cluster.cpus.data 52841061.798353590071                       # Per-master bytes read from memory rate (Bytes/sec)
system.mem_ctrls.masterWriteRate::.writebacks 28094074.724712274969                       # Per-master bytes write to memory rate (Bytes/sec)
system.mem_ctrls.masterReadAccesses::.cpu_cluster.cpus.inst       150524                       # Per-master read serviced memory accesses
system.mem_ctrls.masterReadAccesses::.cpu_cluster.cpus.data        26200                       # Per-master read serviced memory accesses
system.mem_ctrls.masterWriteAccesses::.writebacks        14412                       # Per-master write serviced memory accesses
system.mem_ctrls.masterReadTotalLat::.cpu_cluster.cpus.inst   5276742894                       # Per-master read total memory access latency
system.mem_ctrls.masterReadTotalLat::.cpu_cluster.cpus.data    953893396                       # Per-master read total memory access latency
system.mem_ctrls.masterWriteTotalLat::.writebacks 331241549356                       # Per-master write total memory access latency
system.mem_ctrls.masterReadAvgLat::.cpu_cluster.cpus.inst     35055.82                       # Per-master read average memory access latency
system.mem_ctrls.masterReadAvgLat::.cpu_cluster.cpus.data     36408.14                       # Per-master read average memory access latency
system.mem_ctrls.masterWriteAvgLat::.writebacks  22983732.26                       # Per-master write average memory access latency
system.mem_ctrls.pageHitRate                    80.88                       # Row buffer hit rate, read and write combined
system.mem_ctrls.rank0.actEnergy             63446040                       # Energy for activate commands per rank (pJ)
system.mem_ctrls.rank0.preEnergy         33435091.200000                       # Energy for precharge commands per rank (pJ)
system.mem_ctrls.rank0.readEnergy           204232392                       # Energy for read commands per rank (pJ)
system.mem_ctrls.rank0.writeEnergy           11517480                       # Energy for write commands per rank (pJ)
system.mem_ctrls.rank0.refreshEnergy         87289800                       # Energy for refresh commands per rank (pJ)
system.mem_ctrls.rank0.actBackEnergy     500811520.500000                       # Energy for active background per rank (pJ)
system.mem_ctrls.rank0.preBackEnergy     89310506.400000                       # Energy for precharge background per rank (pJ)
system.mem_ctrls.rank0.actPowerDownEnergy            0                       # Energy for active power-down per rank (pJ)
system.mem_ctrls.rank0.prePowerDownEnergy            0                       # Energy for precharge power-down per rank (pJ)
system.mem_ctrls.rank0.selfRefreshEnergy            0                       # Energy for self refresh per rank (pJ)
system.mem_ctrls.rank0.totalEnergy       990042830.100003                       # Total energy per rank (pJ)
system.mem_ctrls.rank0.averagePower         70.637793                       # Core power per rank (mW)
system.mem_ctrls.rank0.totalIdleTime                0                       # Total Idle time Per DRAM Rank
system.mem_ctrls.rank0.memoryStateTime::IDLE   2592210652                       # Time in different power states
system.mem_ctrls.rank0.memoryStateTime::REF    469300000                       # Time in different power states
system.mem_ctrls.rank0.memoryStateTime::SREF            0                       # Time in different power states
system.mem_ctrls.rank0.memoryStateTime::PRE_PDN            0                       # Time in different power states
system.mem_ctrls.rank0.memoryStateTime::ACT  10954256155                       # Time in different power states
system.mem_ctrls.rank0.memoryStateTime::ACT_PDN            0                       # Time in different power states

---------- End Simulation Statistics   ----------
