gem5 Simulator System.  http://gem5.org
gem5 is copyrighted software; use the --copyright option for details.

gem5 compiled Oct  4 2023 20:26:28
gem5 started Oct  5 2023 21:06:00
gem5 executing on node4x10a.cs.rochester.edu, pid 48201
command line: /u/sgupta45/gem5-SALAM/build/ARM/gem5_bus.opt --debug-flags=HWACC,CommInterface,LLVMInterface,StreamDma,NoncoherentDma,TickTimer,SchedulerStats --outdir=BM_ARM_OUT/comb_2_opt_flush_opt_fwd/canny_0_deblur_1_gru_1_harris_0_lstm_0_LAX configs/SALAM/scheduler.py --mem-size=4GB --mem-type=LPDDR5_6400_1x16_BG_BL32 --kernel=/u/sgupta45/gem5-SALAM/benchmarks/scheduler/sw/bin_comb_2/canny_0_deblur_1_gru_1_harris_0_lstm_0_LAX.elf --vans-config-path=/u/sgupta45/VANS/config --disk-image=/u/sgupta45/gem5-SALAM/baremetal/common/fake.iso --machine-type=VExpress_GEM5_V1 --dtb-file=none --bare-metal --cpu-type=ex5_LITTLE --cpu-clock=1.6GHz --accpath=/u/sgupta45/gem5-SALAM/benchmarks --caches --cacheline_size=64 --l1d_size=32kB --l1d_assoc=4 --l1i_size=32kB --l1i_assoc=2

Global frequency set at 1000000000000 ticks per second
Cycle Counts Loaded!
Cycle Counts Loaded!
Cycle Counts Loaded!
Cycle Counts Loaded!
Cycle Counts Loaded!
Cycle Counts Loaded!
Cycle Counts Loaded!
Cycle Counts Loaded!
Cycle Counts Loaded!
Cycle Counts Loaded!
Cycle Counts Loaded!
**** REAL SIMULATION ****
3820625: global: Timer #8 started at tick 3820625
4038750: global: Timer #8 stopped at tick 4038750. Duration: 218125
4108125: global: Timer #8 started at tick 4108125
4191875: global: Timer #8 stopped at tick 4191875. Duration: 83750
101580625: global: Timer #8 started at tick 101580625
114091875: global: Timer #8 stopped at tick 114091875. Duration: 12511250
114118125: global: Timer #8 started at tick 114118125
126574375: global: Timer #8 stopped at tick 126574375. Duration: 12456250
126597500: global: Timer #8 started at tick 126597500
139051250: global: Timer #8 stopped at tick 139051250. Duration: 12453750
139140000: global: Timer #8 started at tick 139140000
151587500: global: Timer #8 stopped at tick 151587500. Duration: 12447500
152592500: global: Timer #8 started at tick 152592500
155833750: global: Timer #8 stopped at tick 155833750. Duration: 3241250
155850625: global: Timer #8 started at tick 155850625
165199375: global: Timer #8 stopped at tick 165199375. Duration: 9348750
165546250: global: Timer #8 started at tick 165546250
178009375: global: Timer #8 stopped at tick 178009375. Duration: 12463125
183937500: global: Timer #8 started at tick 183937500
196395625: global: Timer #8 stopped at tick 196395625. Duration: 12458125
196414375: global: Timer #8 started at tick 196414375
208876250: global: Timer #8 stopped at tick 208876250. Duration: 12461875
208893125: global: Timer #8 started at tick 208893125
221351250: global: Timer #8 stopped at tick 221351250. Duration: 12458125
221369375: global: Timer #8 started at tick 221369375
233826250: global: Timer #8 stopped at tick 233826250. Duration: 12456875
233845000: global: Timer #8 started at tick 233845000
246300625: global: Timer #8 stopped at tick 246300625. Duration: 12455625
246317500: global: Timer #8 started at tick 246317500
258771250: global: Timer #8 stopped at tick 258771250. Duration: 12453750
259353750: global: Timer #8 started at tick 259353750
271807500: global: Timer #8 stopped at tick 271807500. Duration: 12453750
789488125: global: Timer #8 started at tick 789488125
988511250: global: Timer #8 stopped at tick 988511250. Duration: 199023125
1399006875: global: Timer #8 started at tick 1399006875
1598020000: global: Timer #8 stopped at tick 1598020000. Duration: 199013125
2007894375: global: Timer #8 started at tick 2007894375
2206913125: global: Timer #8 stopped at tick 2206913125. Duration: 199018750
2615770000: global: Timer #8 started at tick 2615770000
2814785000: global: Timer #8 stopped at tick 2814785000. Duration: 199015000
3224146875: global: Timer #8 started at tick 3224146875
3423160000: global: Timer #8 stopped at tick 3423160000. Duration: 199013125
3832871250: global: Timer #8 started at tick 3832871250
4031890000: global: Timer #8 stopped at tick 4031890000. Duration: 199018750
4440999375: global: Timer #8 started at tick 4440999375
4640018125: global: Timer #8 stopped at tick 4640018125. Duration: 199018750
5048970000: global: Timer #8 started at tick 5048970000
5247985000: global: Timer #8 stopped at tick 5247985000. Duration: 199015000
5251858750: global: Timer #2 started at tick 5251858750
5252843750: global: Timer #2 stopped at tick 5252843750. Duration: 985000
5257141250: global: Timer #2 started at tick 5257141250
5257508125: global: Timer #2 stopped at tick 5257508125. Duration: 366875
5274310625: global: Timer #6 started at tick 5274310625
5274925625: global: Timer #7 started at tick 5274925625
5275686625: system.acctest.elem_matrix0_dma: SRC:0x00000000822553c0, DST:0x0000000024000020, LEN:65536
5275956875: global: Timer #7 stopped at tick 5275956875. Duration: 1031250
5276072500: global: Timer #6 stopped at tick 5276072500. Duration: 1761875
5276273750: global: Timer #6 started at tick 5276273750
5276620625: global: Timer #7 started at tick 5276620625
5277349000: system.acctest.isp0_dma: SRC:0x00000000820d2f80, DST:0x0000000027000020, LEN:16900
5277673750: global: Timer #7 stopped at tick 5277673750. Duration: 1053125
5277746875: global: Timer #6 stopped at tick 5277746875. Duration: 1473125
5277806250: global: Number of accelerators running = 2
5281590000: system.acctest.isp0_dma: Transfer completed in 4.241 us
5282336875: global: Timer #0 started at tick 5282336875
5283858750: global: Timer #1 started at tick 5283858750
5284467500: global: Timer #1 stopped at tick 5284467500. Duration: 608750
5285123750: global: Timer #6 started at tick 5285123750
5285423750: global: Timer #7 started at tick 5285423750
5285954375: global: Timer #7 stopped at tick 5285954375. Duration: 530625
5286247500: global: Timer #6 stopped at tick 5286247500. Duration: 1123750
5286565000: global: Timer #0 stopped at tick 5286565000. Duration: 4228125
5286583750: global: Number of accelerators running = 2
5288983625: system.acctest.elem_matrix0_dma: Transfer completed in 13.297 us
5289120625: global: Timer #0 started at tick 5289120625
5289535625: global: Timer #1 started at tick 5289535625
5289650000: global: Timer #1 stopped at tick 5289650000. Duration: 114375
5289885000: global: Timer #6 started at tick 5289885000
5290421875: global: Timer #7 started at tick 5290421875
5291067375: system.acctest.elem_matrix0_dma: SRC:0x0000000082155200, DST:0x0000000024010020, LEN:65536
5291199375: global: Timer #7 stopped at tick 5291199375. Duration: 777500
5291275000: global: Timer #6 stopped at tick 5291275000. Duration: 1390000
5291381250: global: Timer #0 stopped at tick 5291381250. Duration: 2260625
5291395625: global: Number of accelerators running = 2
5303272375: system.acctest.elem_matrix0_dma: Transfer completed in 12.205 us
5303347500: global: Timer #0 started at tick 5303347500
5303704375: global: Timer #1 started at tick 5303704375
5303758125: global: Timer #1 stopped at tick 5303758125. Duration: 53750
5304058750: global: Timer #6 started at tick 5304058750
5304144375: global: Timer #7 started at tick 5304144375
5305170000: global: Timer #7 stopped at tick 5305170000. Duration: 1025625
5305262500: global: Timer #6 stopped at tick 5305262500. Duration: 1203750
5305368750: global: Timer #0 stopped at tick 5305368750. Duration: 2021250
5305383125: global: Number of accelerators running = 2
********************************************************************************
system.acctest.elem_matrix0.compute
   ========= Performance Analysis =============
   Setup Time:                      5.35915seconds
   Simulation Time:                 551.974seconds
   System Clock:                    1GHz
   Transistor Latency:              1ns
   Runtime:                         10932 cycles
   Runtime:                         10.932 us
   Stalls:                          0 cycles
   Executed Nodes:                  10931 cycles

********************************************************************************
   ========= Performance Analysis =================
   Setup Time:                      5.35915e+09ns
   Simulation Time:                 5.51974e+11ns
   System Clock:                    1GHz
   Transistor Latency:              0ns
   Runtime:                         10932 cycles
   Runtime:                         1.0932e-06 seconds
   Stalls:                          0 cycles
       Load Only:                   0 cycles
       Store Only:                  0 cycles
       Compute Only:                0 cycles
       Compute & Store:             0 cycles
       Load & Store:                0 cycles
       Load & Compute:              0 cycles
       Load & Compute & Store:      0 cycles
   Executed Nodes:                  10931 cycles
       Load Only:                   0 cycles
       Store Only:                  5 cycles
       Compute Only:                1 cycles
       Compute & Store:             21 cycles
       Load & Store:                0 cycles
       Load & Compute:              7 cycles
       Load & Compute & Store:      10897 cycles

   ========= Runtime FU's ========= (Max | Avg) ===
   Counter FU's:                      32 | 0.046838
   Integer Add/Sub FU's:               0 | 0.000000
   Integer Mul/Div FU's:               0 | 0.000000
   Integer Shifter FU's:               0 | 0.000000
   Integer Bitwise FU's:               1 | 0.000091
   Floating Point Float Add/Sub:      34 | 0.044252
   Floating Point Double Add/Sub:      0 | 0.000000
   Floating Point Float Mul/Div:       0 | 0.000000
   Floating Point Double Mul/Div:      0 | 0.000000
   0 Cycle Compare FU's:             102 | 0.046974
   GEP Instruction FU's:              96 | 0.046835
   Type Conversion FU's:               7 | 0.006782

   ========= Static FU's ==========================
   Counter FU's:                    0
   Integer Add/Sub FU's:            0
   Integer Mul/Div FU's:            0
   Integer Shifter FU's:            0
   Integer Bitwise FU's:            0
   Floating Point Float Add/Sub:    0
   Floating Point Double Add/Sub:   0
   Floating Point Float Mul/Div:    0
   Floating Point Double Mul/Div:   0
   0 Cycle Compare FU's:            0
   GEP Instruction FU's:            0
   Type Conversion FU's:            0
   Other:                           0

   ========= Pipeline Register Usage =============
   Total Number of Registers:       5641
   Max Register Usage Per Cycle:    138
   Avg Register Usage Per Cycle:    12.130992
   Avg Register Size (Bytes):       5.980606

   ========= Memory Configuration =================
   Cache Bus Ports:                 0
   Shared Cache Size:               0kB
   Local Bus Ports:                 0
   Private SPM Size:                256kB
   Private Read Ports:              0
   Private Write Ports:             0
   Private Read Bus Width:          64
   Private Write Bus Width:         64
       Memory Reads:                0
       Memory Writes:               0
   ========= Power Analysis ======================
   FU Leakage Power:                0.519269 mW 
   FU Dynamic Power:                0.154621 mW 
   FU Total Power:                  0.673890 mW 

   Registers Leakage Power:          0.005281 mW 
   Registers Dynamic Power:          0.015326 mW 
       Register Reads (Bits):        132616
       Register Writes (Bits):       133658
   Registers Total Power:            0.020607 mW

   SPM Leakage Power:               0.104100 mW
   SPM Read Dynamic Power:          1.997266 mW
   SPM Write Dynamic Power:         0.953321 mW
   SPM Total Power:                 3.054688 mW

   SPM Energy Per Read Access:      0.170493 nJ
   SPM Energy Per Write Access:     0.218190 nJ

   Cache Leakage Power:             0.000000 mW
   Cache Read Dynamic Power:        0.000000 mW
   Cache Write Dynamic Power:       0.000000 mW
   Cache Total Power:               0.000000 mW

   Accelerator Power:               0.694497 mW
   Accelerator Power (SPM):         3.749184 mW
   Accelerator Power (Cache):       0.694497 mW

   ========= Area Analysis =======================
   FU Area:                         70212.562500 um^2 (0.070213 mm^2)
   Register Area:                   429.271088 um^2 (0.000429 mm^2)
   SPM Area:                        2177.365505 um^2 (0.002177 mm^2)
   Cache Area:                      0.000000 um^2 (0.000000 mm^2)

   Accelerator Area:                70641.835938 um^2 (0.070642 mm^2)
   Accelerator Area (SPM):          72819.201442 um^2 (0.072819 mm^2)
   Accelerator Area (Cache):        70641.835938 um^2 (0.070642 mm^2)

   ========= SPM Resizing  =======================
   SPM Optimized Leakage Power:     0.004248 mW
   SPM Opt Area:                    178.524902 um^2

5316055000: global: Timer #0 started at tick 5316055000
5316396250: global: Timer #2 started at tick 5316396250
5317224375: global: Timer #2 stopped at tick 5317224375. Duration: 828125
5317300625: global: Timer #2 started at tick 5317300625
5317786875: global: Timer #2 stopped at tick 5317786875. Duration: 486250
5318562500: global: Timer #7 started at tick 5318562500
5319201625: system.acctest.elem_matrix0_dma: SRC:0x0000000024030020, DST:0x0000000082165200, LEN:65536
5319350000: global: Timer #7 stopped at tick 5319350000. Duration: 787500
5319748750: global: Timer #0 stopped at tick 5319748750. Duration: 3693750
5319763125: global: Number of accelerators running = 2
********************************************************************************
system.acctest.isp0.compute
   ========= Performance Analysis =============
   Setup Time:                      0.366423seconds
   Simulation Time:                 1148.921896seconds
   System Clock:                    1.000000GHz
   Transistor Latency:              1ns
   Runtime:                         34882 cycles
   Runtime:                         34.882000 us
   Stalls:                          1 cycles
   Executed Nodes:                  34880 cycles

********************************************************************************
   ========= Performance Analysis =================
   Setup Time:                      366423487.000000ns
   Simulation Time:                 1148921896263.000000ns
   System Clock:                    1.000000GHz
   Transistor Latency:              0ns
   Runtime:                         34882 cycles
   Runtime:                         0.000003 seconds
   Stalls:                          1 cycles
       Load Only:                   0 cycles
       Store Only:                  1 cycles
       Compute Only:                0 cycles
       Compute & Store:             0 cycles
       Load & Store:                0 cycles
       Load & Compute:              0 cycles
       Load & Compute & Store:      0 cycles
   Executed Nodes:                  34880 cycles
       Load Only:                   0 cycles
       Store Only:                  1 cycles
       Compute Only:                3453 cycles
       Compute & Store:             19014 cycles
       Load & Store:                0 cycles
       Load & Compute:              2467 cycles
       Load & Compute & Store:      9945 cycles

   ========= Runtime FU's ========= (Max | Avg) ===
   Counter FU's:                      10 | 0.118075
   Integer Add/Sub FU's:              76 | 0.082082
   Integer Mul/Div FU's:              11 | 0.043888
   Integer Shifter FU's:              42 | 0.055974
   Integer Bitwise FU's:               4 | 0.059443
   Floating Point Float Add/Sub:      53 | 0.116839
   Floating Point Double Add/Sub:      0 | 0.000000
   Floating Point Float Mul/Div:      76 | 0.625626
   Floating Point Double Mul/Div:      0 | 0.000000
   0 Cycle Compare FU's:              85 | 0.664984
   GEP Instruction FU's:              33 | 0.117424
   Type Conversion FU's:             110 | 0.379700

   ========= Static FU's ==========================
   Counter FU's:                    0
   Integer Add/Sub FU's:            0
   Integer Mul/Div FU's:            0
   Integer Shifter FU's:            0
   Integer Bitwise FU's:            0
   Floating Point Float Add/Sub:    0
   Floating Point Double Add/Sub:   0
   Floating Point Float Mul/Div:    0
   Floating Point Double Mul/Div:   0
   0 Cycle Compare FU's:            0
   GEP Instruction FU's:            0
   Type Conversion FU's:            0
   Other:                           0

   ========= Pipeline Register Usage =============
   Total Number of Registers:       1620
   Max Register Usage Per Cycle:    151
   Avg Register Usage Per Cycle:    58.744711
   Avg Register Size (Bytes):       5.073357

   ========= Memory Configuration =================
   Cache Bus Ports:                 0
   Shared Cache Size:               0kB
   Local Bus Ports:                 0
   Private SPM Size:                112kB
   Private Read Ports:              0
   Private Write Ports:             0
   Private Read Bus Width:          64
   Private Write Bus Width:         64
       Memory Reads:                0
       Memory Writes:               0
   ========= Power Analysis ======================
   FU Leakage Power:                1.637787 mW 
   FU Dynamic Power:                9.655087 mW 
   FU Total Power:                  11.292874 mW 

   Registers Leakage Power:          0.021654 mW 
   Registers Dynamic Power:          3.085961 mW 
       Register Reads (Bits):        2049133
       Register Writes (Bits):       2049168
   Registers Total Power:            3.107615 mW

   SPM Leakage Power:               0.061081 mW
   SPM Read Dynamic Power:          11.103730 mW
   SPM Write Dynamic Power:         7.385230 mW
   SPM Total Power:                 18.550041 mW

   SPM Energy Per Read Access:      0.142059 nJ
   SPM Energy Per Write Access:     0.255513 nJ

   Cache Leakage Power:             0.000000 mW
   Cache Read Dynamic Power:        0.000000 mW
   Cache Write Dynamic Power:       0.000000 mW
   Cache Total Power:               0.000000 mW

   Accelerator Power:               14.400490 mW
   Accelerator Power (SPM):         32.950531 mW
   Accelerator Power (Cache):       14.400490 mW

   ========= Area Analysis =======================
   FU Area:                         176023.796875 um^2 (0.176024 mm^2)
   Register Area:                   1760.064941 um^2 (0.001760 mm^2)
   SPM Area:                        2165.394891 um^2 (0.002165 mm^2)
   Cache Area:                      0.000000 um^2 (0.000000 mm^2)

   Accelerator Area:                177783.859375 um^2 (0.177784 mm^2)
   Accelerator Area (SPM):          179949.254266 um^2 (0.179949 mm^2)
   Accelerator Area (Cache):        177783.859375 um^2 (0.177784 mm^2)

   ========= SPM Resizing  =======================
   SPM Optimized Leakage Power:     0.005964 mW
   SPM Opt Area:                    422.108128 um^2

5320805625: global: Timer #0 started at tick 5320805625
5321115625: global: Timer #2 started at tick 5321115625
5321423750: global: Timer #2 stopped at tick 5321423750. Duration: 308125
5321719375: global: DAG ID = 0
5321737500: global: Node ID = 0
5321800000: global: Node deadline difference = -247
5321818125: global: Predicted memory time / byte = 7.27596e-05 us/byte
5321836250: global: Predicted memory time = 1.22964 us
5321854375: global: Predicted memory time / byte = 7.27596e-05 us/byte
5321872500: global: Predicted memory time = 3.57628 us
5321935000: global: Predicted memory time / byte = 0.000303018 us/byte
5321953125: global: Predicted memory time = 5.121 us
5321971250: global: Predicted memory time / byte = 0 us/byte
5321989375: global: Predicted memory time = 0 us
5322007500: global: Predicted memory access size = 0
5322025625: global: Predicted memory access size = 16900
5322087500: global: Predicted memory access size = 0
5322106250: global: Predicted memory access size = 0
5322363125: global: Timer #6 started at tick 5322363125
5322719375: global: Timer #7 started at tick 5322719375
5323384000: system.acctest.grayscale0_dma: SRC:0x0000000027010224, DST:0x0000000025000020, LEN:49152
5323696875: global: Timer #7 stopped at tick 5323696875. Duration: 977500
5323847500: global: Timer #6 stopped at tick 5323847500. Duration: 1484375
5323966875: global: Timer #0 stopped at tick 5323966875. Duration: 3161250
5323981250: global: Number of accelerators running = 2
5328352625: system.acctest.elem_matrix0_dma: Transfer completed in 9.151 us
5328435000: global: Timer #0 started at tick 5328435000
5329048750: global: Timer #1 started at tick 5329048750
5329343750: global: Timer #1 stopped at tick 5329343750. Duration: 295000
5329657500: global: DAG ID = 1
5329675625: global: Node ID = 0
5329742500: global: Node deadline difference = -2265
5329760625: global: Predicted memory time / byte = 7.27596e-05 us/byte
5329778750: global: Predicted memory time = 9.53674 us
5329796875: global: Predicted memory time / byte = 7.27596e-05 us/byte
5329815000: global: Predicted memory time = 4.76837 us
5329833125: global: Predicted memory time / byte = 0.00019455 us/byte
5329851250: global: Predicted memory time = 25.5 us
5329869375: global: Predicted memory time / byte = 0.000140976 us/byte
5329887500: global: Predicted memory time = 9.239 us
5329905625: global: Predicted memory access size = 0
5329923750: global: Predicted memory access size = 131072
5329941875: global: Predicted memory access size = 0
5329960000: global: Predicted memory access size = 65536
5330056875: global: Timer #6 started at tick 5330056875
5330656875: global: Timer #7 started at tick 5330656875
5331320000: system.acctest.elem_matrix0_dma: SRC:0x0000000082115080, DST:0x0000000024010020, LEN:65536
5331452500: global: Timer #7 stopped at tick 5331452500. Duration: 795625
5331523750: global: Timer #6 stopped at tick 5331523750. Duration: 1466875
5331623125: global: Timer #0 stopped at tick 5331623125. Duration: 3188125
5331637500: global: Number of accelerators running = 2
5333797000: system.acctest.grayscale0_dma: Transfer completed in 10.413 us
5333891250: global: Timer #0 started at tick 5333891250
5334216875: global: Timer #1 started at tick 5334216875
5334364375: global: Timer #1 stopped at tick 5334364375. Duration: 147500
5334675000: global: Timer #6 started at tick 5334675000
5334807500: global: Timer #7 started at tick 5334807500
5335242500: global: Timer #7 stopped at tick 5335242500. Duration: 435000
5335434375: global: Timer #6 stopped at tick 5335434375. Duration: 759375
5335551250: global: Timer #0 stopped at tick 5335551250. Duration: 1660000
5335565625: global: Number of accelerators running = 2
5343213000: system.acctest.elem_matrix0_dma: Transfer completed in 11.893 us
5343296875: global: Timer #0 started at tick 5343296875
5343626250: global: Timer #1 started at tick 5343626250
5343694375: global: Timer #1 stopped at tick 5343694375. Duration: 68125
5343938125: global: Timer #6 started at tick 5343938125
5344018750: global: Timer #7 started at tick 5344018750
5345038125: global: Timer #7 stopped at tick 5345038125. Duration: 1019375
********************************************************************************
system.acctest.grayscale0.compute
   ========= Performance Analysis =============
   Setup Time:                      0.009285seconds
   Simulation Time:                 299.144323seconds
   System Clock:                    1.000000GHz
   Transistor Latency:              1ns
   Runtime:                         10263 cycles
   Runtime:                         10.263000 us
   Stalls:                          1 cycles
   Executed Nodes:                  10261 cycles

********************************************************************************
   ========= Performance Analysis =================
   Setup Time:                      9284995.000000ns
   Simulation Time:                 299144322994.000000ns
   System Clock:                    1.000000GHz
   Transistor Latency:              0ns
   Runtime:                         10263 cycles
   Runtime:                         0.000001 seconds
   Stalls:                          1 cycles
       Load Only:                   0 cycles
       Store Only:                  1 cycles
       Compute Only:                0 cycles
       Compute & Store:             0 cycles
       Load & Store:                0 cycles
       Load & Compute:              0 cycles
       Load & Compute & Store:      0 cycles
   Executed Nodes:                  10261 cycles
       Load Only:                   0 cycles
       Store Only:                  1 cycles
       Compute Only:                88 cycles
       Compute & Store:             344 cycles
       Load & Store:                0 cycles
       Load & Compute:              1981 cycles
       Load & Compute & Store:      7847 cycles

   ========= Runtime FU's ========= (Max | Avg) ===
   Counter FU's:                      24 | 0.199556
   Integer Add/Sub FU's:               0 | 0.000000
   Integer Mul/Div FU's:               8 | 0.199552
   Integer Shifter FU's:               0 | 0.000000
   Integer Bitwise FU's:               1 | 0.000097
   Floating Point Float Add/Sub:      49 | 0.114264
   Floating Point Double Add/Sub:      0 | 0.000000
   Floating Point Float Mul/Div:      42 | 0.114129
   Floating Point Double Mul/Div:      0 | 0.000000
   0 Cycle Compare FU's:               9 | 0.066626
   GEP Instruction FU's:              36 | 0.177452
   Type Conversion FU's:              76 | 0.401969

   ========= Static FU's ==========================
   Counter FU's:                    0
   Integer Add/Sub FU's:            0
   Integer Mul/Div FU's:            0
   Integer Shifter FU's:            0
   Integer Bitwise FU's:            0
   Floating Point Float Add/Sub:    0
   Floating Point Double Add/Sub:   0
   Floating Point Float Mul/Div:    0
   Floating Point Double Mul/Div:   0
   0 Cycle Compare FU's:            0
   GEP Instruction FU's:            0
   Type Conversion FU's:            0
   Other:                           0

   ========= Pipeline Register Usage =============
   Total Number of Registers:       235
   Max Register Usage Per Cycle:    90
   Avg Register Usage Per Cycle:    33.924291
   Avg Register Size (Bytes):       5.841147

   ========= Memory Configuration =================
   Cache Bus Ports:                 0
   Shared Cache Size:               0kB
   Local Bus Ports:                 0
   Private SPM Size:                176kB
   Private Read Ports:              0
   Private Write Ports:             0
   Private Read Bus Width:          64
   Private Write Bus Width:         64
       Memory Reads:                0
       Memory Writes:               0
   ========= Power Analysis ======================
   FU Leakage Power:                1.178269 mW 
   FU Dynamic Power:                0.617392 mW 
   FU Total Power:                  1.795662 mW 

   Registers Leakage Power:          0.014185 mW 
   Registers Dynamic Power:          0.101057 mW 
       Register Reads (Bits):        348165
       Register Writes (Bits):       348168
   Registers Total Power:            0.115242 mW

   SPM Leakage Power:               0.089881 mW
   SPM Read Dynamic Power:          6.997296 mW
   SPM Write Dynamic Power:         2.062375 mW
   SPM Total Power:                 9.149552 mW

   SPM Energy Per Read Access:      0.161778 nJ
   SPM Energy Per Write Access:     0.205661 nJ

   Cache Leakage Power:             0.000000 mW
   Cache Read Dynamic Power:        0.000000 mW
   Cache Write Dynamic Power:       0.000000 mW
   Cache Total Power:               0.000000 mW

   Accelerator Power:               1.910904 mW
   Accelerator Power (SPM):         11.060456 mW
   Accelerator Power (Cache):       1.910904 mW

   ========= Area Analysis =======================
   FU Area:                         143348.187500 um^2 (0.143348 mm^2)
   Register Area:                   1152.968140 um^2 (0.001153 mm^2)
   SPM Area:                        3573.642862 um^2 (0.003574 mm^2)
   Cache Area:                      0.000000 um^2 (0.000000 mm^2)

   Accelerator Area:                144501.156250 um^2 (0.144501 mm^2)
   Accelerator Area (SPM):          148074.799112 um^2 (0.148075 mm^2)
   Accelerator Area (Cache):        144501.156250 um^2 (0.144501 mm^2)

   ========= SPM Resizing  =======================
   SPM Optimized Leakage Power:     0.003633 mW
   SPM Opt Area:                    364.024374 um^2

5345368750: global: Timer #6 stopped at tick 5345368750. Duration: 1430625
5345470625: global: Timer #0 stopped at tick 5345470625. Duration: 2173750
5345485000: global: Number of accelerators running = 2
5345592500: global: Timer #0 started at tick 5345592500
5345956875: global: Timer #2 started at tick 5345956875
5346387500: global: Timer #2 stopped at tick 5346387500. Duration: 430625
5347146250: global: Timer #7 started at tick 5347146250
5347789500: system.acctest.grayscale0_dma: SRC:0x000000002501c020, DST:0x00000000820e3340, LEN:65536
5347942500: global: Timer #7 stopped at tick 5347942500. Duration: 796250
5348148125: global: Timer #6 started at tick 5348148125
5348735625: global: Timer #7 started at tick 5348735625
5349519500: system.acctest.convolution0_dma: SRC:0x000000002501c020, DST:0x0000000022000020, LEN:65536
5349833750: global: Timer #7 stopped at tick 5349833750. Duration: 1098125
5349863125: global: Timer #6 stopped at tick 5349863125. Duration: 1715000
5350011250: global: Timer #0 stopped at tick 5350011250. Duration: 4418750
5350025625: global: Number of accelerators running = 3
********************************************************************************
system.acctest.elem_matrix0.compute
   ========= Performance Analysis =============
   Setup Time:                      15.164463seconds
   Simulation Time:                 262.367067seconds
   System Clock:                    1.000000GHz
   Transistor Latency:              1ns
   Runtime:                         10932 cycles
   Runtime:                         10.932000 us
   Stalls:                          1 cycles
   Executed Nodes:                  10930 cycles

********************************************************************************
   ========= Performance Analysis =================
   Setup Time:                      15164462572.000000ns
   Simulation Time:                 262367066922.000000ns
   System Clock:                    1.000000GHz
   Transistor Latency:              0ns
   Runtime:                         10932 cycles
   Runtime:                         0.000001 seconds
   Stalls:                          1 cycles
       Load Only:                   0 cycles
       Store Only:                  1 cycles
       Compute Only:                0 cycles
       Compute & Store:             0 cycles
       Load & Store:                0 cycles
       Load & Compute:              0 cycles
       Load & Compute & Store:      0 cycles
   Executed Nodes:                  10930 cycles
       Load Only:                   0 cycles
       Store Only:                  4 cycles
       Compute Only:                1 cycles
       Compute & Store:             21 cycles
       Load & Store:                0 cycles
       Load & Compute:              6 cycles
       Load & Compute & Store:      10898 cycles

   ========= Runtime FU's ========= (Max | Avg) ===
   Counter FU's:                      32 | 0.046838
   Integer Add/Sub FU's:               0 | 0.000000
   Integer Mul/Div FU's:               0 | 0.000000
   Integer Shifter FU's:               0 | 0.000000
   Integer Bitwise FU's:               1 | 0.000091
   Floating Point Float Add/Sub:       0 | 0.000000
   Floating Point Double Add/Sub:      0 | 0.000000
   Floating Point Float Mul/Div:      34 | 0.044252
   Floating Point Double Mul/Div:      0 | 0.000000
   0 Cycle Compare FU's:             102 | 0.046945
   GEP Instruction FU's:              96 | 0.046835
   Type Conversion FU's:               7 | 0.006782

   ========= Static FU's ==========================
   Counter FU's:                    0
   Integer Add/Sub FU's:            0
   Integer Mul/Div FU's:            0
   Integer Shifter FU's:            0
   Integer Bitwise FU's:            0
   Floating Point Float Add/Sub:    0
   Floating Point Double Add/Sub:   0
   Floating Point Float Mul/Div:    0
   Floating Point Double Mul/Div:   0
   0 Cycle Compare FU's:            0
   GEP Instruction FU's:            0
   Type Conversion FU's:            0
   Other:                           0

   ========= Pipeline Register Usage =============
   Total Number of Registers:       5641
   Max Register Usage Per Cycle:    137
   Avg Register Usage Per Cycle:    12.130992
   Avg Register Size (Bytes):       5.980606

   ========= Memory Configuration =================
   Cache Bus Ports:                 0
   Shared Cache Size:               0kB
   Local Bus Ports:                 0
   Private SPM Size:                256kB
   Private Read Ports:              0
   Private Write Ports:             0
   Private Read Bus Width:          64
   Private Write Bus Width:         64
       Memory Reads:                0
       Memory Writes:               0
   ========= Power Analysis ======================
   FU Leakage Power:                0.045377 mW 
   FU Dynamic Power:                0.142576 mW 
   FU Total Power:                  0.187953 mW 

   Registers Leakage Power:          0.005281 mW 
   Registers Dynamic Power:          0.015326 mW 
       Register Reads (Bits):        132616
       Register Writes (Bits):       133658
   Registers Total Power:            0.020607 mW

   SPM Leakage Power:               0.104100 mW
   SPM Read Dynamic Power:          2.785289 mW
   SPM Write Dynamic Power:         2.044305 mW
   SPM Total Power:                 4.933694 mW

   SPM Energy Per Read Access:      0.170493 nJ
   SPM Energy Per Write Access:     0.218190 nJ

   Cache Leakage Power:             0.000000 mW
   Cache Read Dynamic Power:        0.000000 mW
   Cache Write Dynamic Power:       0.000000 mW
   Cache Total Power:               0.000000 mW

   Accelerator Power:               0.208559 mW
   Accelerator Power (SPM):         5.142254 mW
   Accelerator Power (Cache):       0.208559 mW

   ========= Area Analysis =======================
   FU Area:                         5472.068359 um^2 (0.005472 mm^2)
   Register Area:                   429.271088 um^2 (0.000429 mm^2)
   SPM Area:                        2177.365505 um^2 (0.002177 mm^2)
   Cache Area:                      0.000000 um^2 (0.000000 mm^2)

   Accelerator Area:                5901.339355 um^2 (0.005901 mm^2)
   Accelerator Area (SPM):          8078.704860 um^2 (0.008079 mm^2)
   Accelerator Area (Cache):        5901.339355 um^2 (0.005901 mm^2)

   ========= SPM Resizing  =======================
   SPM Optimized Leakage Power:     0.004248 mW
   SPM Opt Area:                    178.524902 um^2

5355938125: global: Timer #0 started at tick 5355938125
5356196875: global: Timer #2 started at tick 5356196875
5356577500: global: Timer #2 stopped at tick 5356577500. Duration: 380625
5356829375: global: DAG ID = 1
5356841875: global: Node ID = 5
5356855000: global: Node deadline difference = -2295
5356867500: global: Predicted memory time / byte = 0.000186142 us/byte
5356880000: global: Predicted memory time = 24.398 us
5356892500: global: Predicted memory time / byte = 0.000186142 us/byte
5356905000: global: Predicted memory time = 12.199 us
5356917500: global: Predicted memory time / byte = 0.000181503 us/byte
5356930000: global: Predicted memory time = 11.895 us
5356942500: global: Predicted memory time / byte = 0 us/byte
5356955000: global: Predicted memory time = 0 us
5356967500: global: Predicted memory access size = 0
5356980000: global: Predicted memory access size = 65536
5356992500: global: Predicted memory access size = 0
5357005000: global: Predicted memory access size = 0
5357080000: global: Timer #6 started at tick 5357080000
5357199375: global: Timer #7 started at tick 5357199375
5357894000: system.acctest.elem_matrix0_dma: SRC:0x0000000082125080, DST:0x0000000024010020, LEN:65536
5358021875: global: Timer #7 stopped at tick 5358021875. Duration: 822500
5358036875: global: Timer #6 stopped at tick 5358036875. Duration: 956875
5358125000: global: Timer #0 stopped at tick 5358125000. Duration: 2186875
5358139375: global: Number of accelerators running = 3
5358811500: system.acctest.grayscale0_dma: Transfer completed in 11.022 us
5358896250: global: Timer #0 started at tick 5358896250
5359220000: global: Timer #1 started at tick 5359220000
5359295625: global: Timer #1 stopped at tick 5359295625. Duration: 75625
5359508750: global: DAG ID = 0
5359521250: global: Node ID = 1
5359540625: global: Node deadline difference = -246
5359553125: global: Predicted memory time / byte = 0.000186142 us/byte
5359565625: global: Predicted memory time = 9.14925 us
5359578125: global: Predicted memory time / byte = 0.000186142 us/byte
5359590625: global: Predicted memory time = 12.199 us
5359603125: global: Predicted memory time / byte = 0.000210999 us/byte
5359615625: global: Predicted memory time = 10.371 us
5359628125: global: Predicted memory time / byte = 0.000167984 us/byte
5359640625: global: Predicted memory time = 11.009 us
5359653125: global: Predicted memory access size = 0
5359665625: global: Predicted memory access size = 49152
5359678125: global: Predicted memory access size = 0
5359690625: global: Predicted memory access size = 65536
5359806250: global: Timer #0 stopped at tick 5359806250. Duration: 910000
5359820625: global: Number of accelerators running = 2
5366244500: system.acctest.convolution0_dma: Transfer completed in 16.725 us
5366338750: global: Timer #0 started at tick 5366338750
5366671250: global: Timer #1 started at tick 5366671250
5366739375: global: Timer #1 stopped at tick 5366739375. Duration: 68125
5366975000: global: Timer #6 started at tick 5366975000
5367160625: global: Timer #7 started at tick 5367160625
5367808750: system.acctest.convolution0_dma: SRC:0x00000000820928c0, DST:0x0000000022030020, LEN:100
5367923750: system.acctest.convolution0_dma: Transfer completed in 0.115 us
5367998125: global: Timer #7 stopped at tick 5367998125. Duration: 837500
5368031875: global: Timer #6 stopped at tick 5368031875. Duration: 1056875
5368126875: global: Timer #0 stopped at tick 5368126875. Duration: 1788125
5368141250: global: Number of accelerators running = 2
5368255000: global: Timer #0 started at tick 5368255000
5368730625: global: Timer #6 started at tick 5368730625
5368789375: global: Timer #7 started at tick 5368789375
5369860000: global: Timer #7 stopped at tick 5369860000. Duration: 1070625
5369915000: global: Timer #6 stopped at tick 5369915000. Duration: 1184375
5370015000: global: Timer #0 stopped at tick 5370015000. Duration: 1760000
5370029375: global: Number of accelerators running = 2
5370382000: system.acctest.elem_matrix0_dma: Transfer completed in 12.488 us
5370466875: global: Timer #0 started at tick 5370466875
5370794375: global: Timer #1 started at tick 5370794375
5370853125: global: Timer #1 stopped at tick 5370853125. Duration: 58750
5371086875: global: Timer #6 started at tick 5371086875
5371166875: global: Timer #7 started at tick 5371166875
5372167500: global: Timer #7 stopped at tick 5372167500. Duration: 1000625
5372226250: global: Timer #6 stopped at tick 5372226250. Duration: 1139375
5372321250: global: Timer #0 stopped at tick 5372321250. Duration: 1854375
5372335625: global: Number of accelerators running = 2
********************************************************************************
system.acctest.elem_matrix0.compute
   ========= Performance Analysis =============
   Setup Time:                      11.412642seconds
   Simulation Time:                 226.350133seconds
   System Clock:                    1.000000GHz
   Transistor Latency:              1ns
   Runtime:                         10932 cycles
   Runtime:                         10.932000 us
   Stalls:                          0 cycles
   Executed Nodes:                  10931 cycles

********************************************************************************
   ========= Performance Analysis =================
   Setup Time:                      11412641626.000000ns
   Simulation Time:                 226350133057.000000ns
   System Clock:                    1.000000GHz
   Transistor Latency:              0ns
   Runtime:                         10932 cycles
   Runtime:                         0.000001 seconds
   Stalls:                          0 cycles
       Load Only:                   0 cycles
       Store Only:                  0 cycles
       Compute Only:                0 cycles
       Compute & Store:             0 cycles
       Load & Store:                0 cycles
       Load & Compute:              0 cycles
       Load & Compute & Store:      0 cycles
   Executed Nodes:                  10931 cycles
       Load Only:                   0 cycles
       Store Only:                  5 cycles
       Compute Only:                1 cycles
       Compute & Store:             21 cycles
       Load & Store:                0 cycles
       Load & Compute:              7 cycles
       Load & Compute & Store:      10897 cycles

   ========= Runtime FU's ========= (Max | Avg) ===
   Counter FU's:                      32 | 0.046838
   Integer Add/Sub FU's:               0 | 0.000000
   Integer Mul/Div FU's:               0 | 0.000000
   Integer Shifter FU's:               0 | 0.000000
   Integer Bitwise FU's:               1 | 0.000091
   Floating Point Float Add/Sub:      34 | 0.044252
   Floating Point Double Add/Sub:      0 | 0.000000
   Floating Point Float Mul/Div:       0 | 0.000000
   Floating Point Double Mul/Div:      0 | 0.000000
   0 Cycle Compare FU's:             102 | 0.046974
   GEP Instruction FU's:              96 | 0.046835
   Type Conversion FU's:               7 | 0.006782

   ========= Static FU's ==========================
   Counter FU's:                    0
   Integer Add/Sub FU's:            0
   Integer Mul/Div FU's:            0
   Integer Shifter FU's:            0
   Integer Bitwise FU's:            0
   Floating Point Float Add/Sub:    0
   Floating Point Double Add/Sub:   0
   Floating Point Float Mul/Div:    0
   Floating Point Double Mul/Div:   0
   0 Cycle Compare FU's:            0
   GEP Instruction FU's:            0
   Type Conversion FU's:            0
   Other:                           0

   ========= Pipeline Register Usage =============
   Total Number of Registers:       5641
   Max Register Usage Per Cycle:    138
   Avg Register Usage Per Cycle:    12.130992
   Avg Register Size (Bytes):       5.980606

   ========= Memory Configuration =================
   Cache Bus Ports:                 0
   Shared Cache Size:               0kB
   Local Bus Ports:                 0
   Private SPM Size:                256kB
   Private Read Ports:              0
   Private Write Ports:             0
   Private Read Bus Width:          64
   Private Write Bus Width:         64
       Memory Reads:                0
       Memory Writes:               0
   ========= Power Analysis ======================
   FU Leakage Power:                0.519269 mW 
   FU Dynamic Power:                0.154621 mW 
   FU Total Power:                  0.673890 mW 

   Registers Leakage Power:          0.005281 mW 
   Registers Dynamic Power:          0.015326 mW 
       Register Reads (Bits):        132616
       Register Writes (Bits):       133658
   Registers Total Power:            0.020607 mW

   SPM Leakage Power:               0.104100 mW
   SPM Read Dynamic Power:          3.776796 mW
   SPM Write Dynamic Power:         2.457440 mW
   SPM Total Power:                 6.338336 mW

   SPM Energy Per Read Access:      0.170493 nJ
   SPM Energy Per Write Access:     0.218190 nJ

   Cache Leakage Power:             0.000000 mW
   Cache Read Dynamic Power:        0.000000 mW
   Cache Write Dynamic Power:       0.000000 mW
   Cache Total Power:               0.000000 mW

   Accelerator Power:               0.694497 mW
   Accelerator Power (SPM):         7.032833 mW
   Accelerator Power (Cache):       0.694497 mW

   ========= Area Analysis =======================
   FU Area:                         70212.562500 um^2 (0.070213 mm^2)
   Register Area:                   429.271088 um^2 (0.000429 mm^2)
   SPM Area:                        2177.365505 um^2 (0.002177 mm^2)
   Cache Area:                      0.000000 um^2 (0.000000 mm^2)

   Accelerator Area:                70641.835938 um^2 (0.070642 mm^2)
   Accelerator Area (SPM):          72819.201442 um^2 (0.072819 mm^2)
   Accelerator Area (Cache):        70641.835938 um^2 (0.070642 mm^2)

   ========= SPM Resizing  =======================
   SPM Optimized Leakage Power:     0.004248 mW
   SPM Opt Area:                    178.524902 um^2

5383071250: global: Timer #0 started at tick 5383071250
5383373125: global: Timer #2 started at tick 5383373125
5383763750: global: Timer #2 stopped at tick 5383763750. Duration: 390625
5383994375: global: DAG ID = 1
5384006875: global: Node ID = 6
5384020000: global: Node deadline difference = -2325
5384032500: global: Predicted memory time / byte = 0.000181503 us/byte
5384045000: global: Predicted memory time = 23.79 us
5384057500: global: Predicted memory time / byte = 0.000181503 us/byte
5384070000: global: Predicted memory time = 11.895 us
5384082500: global: Predicted memory time / byte = 0.000190521 us/byte
5384095000: global: Predicted memory time = 12.486 us
5384107500: global: Predicted memory time / byte = 0 us/byte
5384120000: global: Predicted memory time = 0 us
5384132500: global: Predicted memory access size = 0
5384145000: global: Predicted memory access size = 65536
5384157500: global: Predicted memory access size = 0
5384170000: global: Predicted memory access size = 0
5384244375: global: Timer #6 started at tick 5384244375
5384351875: global: Timer #7 started at tick 5384351875
5385372500: global: Timer #7 stopped at tick 5385372500. Duration: 1020625
5385569375: global: Timer #6 stopped at tick 5385569375. Duration: 1325000
5385655625: global: Timer #0 stopped at tick 5385655625. Duration: 2584375
5385670000: global: Number of accelerators running = 2
********************************************************************************
system.acctest.elem_matrix0.compute
   ========= Performance Analysis =============
   Setup Time:                      11.056609seconds
   Simulation Time:                 166.943355seconds
   System Clock:                    1.000000GHz
   Transistor Latency:              1ns
   Runtime:                         8316 cycles
   Runtime:                         8.316000 us
   Stalls:                          82 cycles
   Executed Nodes:                  8233 cycles

********************************************************************************
   ========= Performance Analysis =================
   Setup Time:                      11056609492.000000ns
   Simulation Time:                 166943354689.000000ns
   System Clock:                    1.000000GHz
   Transistor Latency:              0ns
   Runtime:                         8316 cycles
   Runtime:                         0.000001 seconds
   Stalls:                          82 cycles
       Load Only:                   0 cycles
       Store Only:                  77 cycles
       Compute Only:                0 cycles
       Compute & Store:             5 cycles
       Load & Store:                0 cycles
       Load & Compute:              0 cycles
       Load & Compute & Store:      0 cycles
   Executed Nodes:                  8233 cycles
       Load Only:                   0 cycles
       Store Only:                  11 cycles
       Compute Only:                1827 cycles
       Compute & Store:             3453 cycles
       Load & Store:                0 cycles
       Load & Compute:              774 cycles
       Load & Compute & Store:      2168 cycles

   ========= Runtime FU's ========= (Max | Avg) ===
   Counter FU's:                      32 | 0.061572
   Integer Add/Sub FU's:               0 | 0.000000
   Integer Mul/Div FU's:               0 | 0.000000
   Integer Shifter FU's:               0 | 0.000000
   Integer Bitwise FU's:               1 | 0.000120
   Floating Point Float Add/Sub:      80 | 0.302014
   Floating Point Double Add/Sub:      0 | 0.000000
   Floating Point Float Mul/Div:      35 | 0.056511
   Floating Point Double Mul/Div:      0 | 0.000000
   0 Cycle Compare FU's:              15 | 0.024828
   GEP Instruction FU's:              64 | 0.061568
   Type Conversion FU's:              66 | 0.120964

   ========= Static FU's ==========================
   Counter FU's:                    0
   Integer Add/Sub FU's:            0
   Integer Mul/Div FU's:            0
   Integer Shifter FU's:            0
   Integer Bitwise FU's:            0
   Floating Point Float Add/Sub:    0
   Floating Point Double Add/Sub:   0
   Floating Point Float Mul/Div:    0
   Floating Point Double Mul/Div:   0
   0 Cycle Compare FU's:            0
   GEP Instruction FU's:            0
   Type Conversion FU's:            0
   Other:                           0

   ========= Pipeline Register Usage =============
   Total Number of Registers:       5641
   Max Register Usage Per Cycle:    126
   Avg Register Usage Per Cycle:    27.706590
   Avg Register Size (Bytes):       5.993295

   ========= Memory Configuration =================
   Cache Bus Ports:                 0
   Shared Cache Size:               0kB
   Local Bus Ports:                 0
   Private SPM Size:                256kB
   Private Read Ports:              0
   Private Write Ports:             0
   Private Read Bus Width:          64
   Private Write Bus Width:         64
       Memory Reads:                0
       Memory Writes:               0
   ========= Power Analysis ======================
   FU Leakage Power:                1.265749 mW 
   FU Dynamic Power:                1.166708 mW 
   FU Total Power:                  2.432457 mW 

   Registers Leakage Power:          0.011908 mW 
   Registers Dynamic Power:          0.045645 mW 
       Register Reads (Bits):        230408
       Register Writes (Bits):       231961
   Registers Total Power:            0.057553 mW

   SPM Leakage Power:               0.104100 mW
   SPM Read Dynamic Power:          4.599549 mW
   SPM Write Dynamic Power:         2.880682 mW
   SPM Total Power:                 7.584331 mW

   SPM Energy Per Read Access:      0.170493 nJ
   SPM Energy Per Write Access:     0.218190 nJ

   Cache Leakage Power:             0.000000 mW
   Cache Read Dynamic Power:        0.000000 mW
   Cache Write Dynamic Power:       0.000000 mW
   Cache Total Power:               0.000000 mW

   Accelerator Power:               2.490010 mW
   Accelerator Power (SPM):         10.074342 mW
   Accelerator Power (Cache):       2.490010 mW

   ========= Area Analysis =======================
   FU Area:                         170559.593750 um^2 (0.170560 mm^2)
   Register Area:                   967.909180 um^2 (0.000968 mm^2)
   SPM Area:                        2177.365505 um^2 (0.002177 mm^2)
   Cache Area:                      0.000000 um^2 (0.000000 mm^2)

   Accelerator Area:                171527.500000 um^2 (0.171527 mm^2)
   Accelerator Area (SPM):          173704.865505 um^2 (0.173705 mm^2)
   Accelerator Area (Cache):        171527.500000 um^2 (0.171527 mm^2)

   ========= SPM Resizing  =======================
   SPM Optimized Leakage Power:     0.003887 mW
   SPM Opt Area:                    172.850411 um^2

5393653125: global: Timer #0 started at tick 5393653125
5393891250: global: Timer #2 started at tick 5393891250
5394227500: global: Timer #2 stopped at tick 5394227500. Duration: 336250
5394449375: global: DAG ID = 1
5394461875: global: Node ID = 7
5394475000: global: Node deadline difference = -2353
5394487500: global: Predicted memory time / byte = 0.000190521 us/byte
5394500000: global: Predicted memory time = 12.486 us
5394512500: global: Predicted memory time / byte = 0.000190521 us/byte
5394525000: global: Predicted memory time = 12.486 us
5394537500: global: Predicted memory time / byte = 0 us/byte
5394550000: global: Predicted memory time = 0 us
5394562500: global: Predicted memory time / byte = 0 us/byte
5394575000: global: Predicted memory time = 0 us
5394587500: global: Predicted memory access size = 0
5394600000: global: Predicted memory access size = 0
5394612500: global: Predicted memory access size = 0
5394625000: global: Predicted memory access size = 0
5394693125: global: Timer #6 started at tick 5394693125
5394809375: global: Timer #7 started at tick 5394809375
5395444500: system.acctest.elem_matrix0_dma: SRC:0x00000000822553c0, DST:0x0000000024010020, LEN:65536
5395575000: global: Timer #7 stopped at tick 5395575000. Duration: 765625
5395600625: global: Timer #6 stopped at tick 5395600625. Duration: 907500
5395672500: global: Timer #0 stopped at tick 5395672500. Duration: 2019375
5395686875: global: Number of accelerators running = 2
5407421500: system.acctest.elem_matrix0_dma: Transfer completed in 11.977 us
5407497500: global: Timer #0 started at tick 5407497500
5407819375: global: Timer #1 started at tick 5407819375
5407877500: global: Timer #1 stopped at tick 5407877500. Duration: 58125
5408101250: global: Timer #6 started at tick 5408101250
5408164375: global: Timer #7 started at tick 5408164375
5409162500: global: Timer #7 stopped at tick 5409162500. Duration: 998125
5409210625: global: Timer #6 stopped at tick 5409210625. Duration: 1109375
5409301250: global: Timer #0 stopped at tick 5409301250. Duration: 1803750
5409315625: global: Number of accelerators running = 2
********************************************************************************
system.acctest.elem_matrix0.compute
   ========= Performance Analysis =============
   Setup Time:                      12.260129seconds
   Simulation Time:                 245.234174seconds
   System Clock:                    1.000000GHz
   Transistor Latency:              1ns
   Runtime:                         10932 cycles
   Runtime:                         10.932000 us
   Stalls:                          1 cycles
   Executed Nodes:                  10930 cycles

********************************************************************************
   ========= Performance Analysis =================
   Setup Time:                      12260128678.000000ns
   Simulation Time:                 245234173861.000000ns
   System Clock:                    1.000000GHz
   Transistor Latency:              0ns
   Runtime:                         10932 cycles
   Runtime:                         0.000001 seconds
   Stalls:                          1 cycles
       Load Only:                   0 cycles
       Store Only:                  1 cycles
       Compute Only:                0 cycles
       Compute & Store:             0 cycles
       Load & Store:                0 cycles
       Load & Compute:              0 cycles
       Load & Compute & Store:      0 cycles
   Executed Nodes:                  10930 cycles
       Load Only:                   0 cycles
       Store Only:                  4 cycles
       Compute Only:                1 cycles
       Compute & Store:             21 cycles
       Load & Store:                0 cycles
       Load & Compute:              6 cycles
       Load & Compute & Store:      10898 cycles

   ========= Runtime FU's ========= (Max | Avg) ===
   Counter FU's:                      32 | 0.046838
   Integer Add/Sub FU's:               0 | 0.000000
   Integer Mul/Div FU's:               0 | 0.000000
   Integer Shifter FU's:               0 | 0.000000
   Integer Bitwise FU's:               1 | 0.000091
   Floating Point Float Add/Sub:       0 | 0.000000
   Floating Point Double Add/Sub:      0 | 0.000000
   Floating Point Float Mul/Div:      34 | 0.044252
   Floating Point Double Mul/Div:      0 | 0.000000
   0 Cycle Compare FU's:             102 | 0.046945
   GEP Instruction FU's:              96 | 0.046835
   Type Conversion FU's:               7 | 0.006782

   ========= Static FU's ==========================
   Counter FU's:                    0
   Integer Add/Sub FU's:            0
   Integer Mul/Div FU's:            0
   Integer Shifter FU's:            0
   Integer Bitwise FU's:            0
   Floating Point Float Add/Sub:    0
   Floating Point Double Add/Sub:   0
   Floating Point Float Mul/Div:    0
   Floating Point Double Mul/Div:   0
   0 Cycle Compare FU's:            0
   GEP Instruction FU's:            0
   Type Conversion FU's:            0
   Other:                           0

   ========= Pipeline Register Usage =============
   Total Number of Registers:       5641
   Max Register Usage Per Cycle:    137
   Avg Register Usage Per Cycle:    12.130992
   Avg Register Size (Bytes):       5.980606

   ========= Memory Configuration =================
   Cache Bus Ports:                 0
   Shared Cache Size:               0kB
   Local Bus Ports:                 0
   Private SPM Size:                256kB
   Private Read Ports:              0
   Private Write Ports:             0
   Private Read Bus Width:          64
   Private Write Bus Width:         64
       Memory Reads:                0
       Memory Writes:               0
   ========= Power Analysis ======================
   FU Leakage Power:                0.045377 mW 
   FU Dynamic Power:                0.142576 mW 
   FU Total Power:                  0.187953 mW 

   Registers Leakage Power:          0.005281 mW 
   Registers Dynamic Power:          0.015326 mW 
       Register Reads (Bits):        132616
       Register Writes (Bits):       133658
   Registers Total Power:            0.020607 mW

   SPM Leakage Power:               0.104100 mW
   SPM Read Dynamic Power:          4.784107 mW
   SPM Write Dynamic Power:         3.448926 mW
   SPM Total Power:                 8.337133 mW

   SPM Energy Per Read Access:      0.170493 nJ
   SPM Energy Per Write Access:     0.218190 nJ

   Cache Leakage Power:             0.000000 mW
   Cache Read Dynamic Power:        0.000000 mW
   Cache Write Dynamic Power:       0.000000 mW
   Cache Total Power:               0.000000 mW

   Accelerator Power:               0.208559 mW
   Accelerator Power (SPM):         8.545693 mW
   Accelerator Power (Cache):       0.208559 mW

   ========= Area Analysis =======================
   FU Area:                         5472.068359 um^2 (0.005472 mm^2)
   Register Area:                   429.271088 um^2 (0.000429 mm^2)
   SPM Area:                        2177.365505 um^2 (0.002177 mm^2)
   Cache Area:                      0.000000 um^2 (0.000000 mm^2)

   Accelerator Area:                5901.339355 um^2 (0.005901 mm^2)
   Accelerator Area (SPM):          8078.704860 um^2 (0.008079 mm^2)
   Accelerator Area (Cache):        5901.339355 um^2 (0.005901 mm^2)

   ========= SPM Resizing  =======================
   SPM Optimized Leakage Power:     0.004248 mW
   SPM Opt Area:                    178.524902 um^2

5420066250: global: Timer #0 started at tick 5420066250
5420310000: global: Timer #2 started at tick 5420310000
5420649375: global: Timer #2 stopped at tick 5420649375. Duration: 339375
5420869375: global: DAG ID = 1
5420881875: global: Node ID = 8
5420895000: global: Node deadline difference = -2384
5420907500: global: Predicted memory time / byte = 0.000190521 us/byte
5420920000: global: Predicted memory time = 24.972 us
5420932500: global: Predicted memory time / byte = 0.000190521 us/byte
5420945000: global: Predicted memory time = 12.486 us
5420957500: global: Predicted memory time / byte = 0.000182663 us/byte
5420970000: global: Predicted memory time = 11.971 us
5420982500: global: Predicted memory time / byte = 0 us/byte
5420995000: global: Predicted memory time = 0 us
5421007500: global: Predicted memory access size = 0
5421020000: global: Predicted memory access size = 65536
5421032500: global: Predicted memory access size = 0
5421045000: global: Predicted memory access size = 0
5421113125: global: Timer #6 started at tick 5421113125
5421215000: global: Timer #7 started at tick 5421215000
5421845875: system.acctest.elem_matrix0_dma: SRC:0x0000000082155200, DST:0x0000000024010020, LEN:65536
5421968750: global: Timer #7 stopped at tick 5421968750. Duration: 753750
5421983750: global: Timer #6 stopped at tick 5421983750. Duration: 870625
5422055625: global: Timer #0 stopped at tick 5422055625. Duration: 1989375
5422070000: global: Number of accelerators running = 2
5433798875: system.acctest.elem_matrix0_dma: Transfer completed in 11.953 us
5433875000: global: Timer #0 started at tick 5433875000
5434196875: global: Timer #1 started at tick 5434196875
5434255000: global: Timer #1 stopped at tick 5434255000. Duration: 58125
5434478125: global: Timer #6 started at tick 5434478125
5434541250: global: Timer #7 started at tick 5434541250
5435542500: global: Timer #7 stopped at tick 5435542500. Duration: 1001250
5435590625: global: Timer #6 stopped at tick 5435590625. Duration: 1112500
5435681250: global: Timer #0 stopped at tick 5435681250. Duration: 1806250
5435695625: global: Number of accelerators running = 2
********************************************************************************
system.acctest.elem_matrix0.compute
   ========= Performance Analysis =============
   Setup Time:                      14.118387seconds
   Simulation Time:                 230.455793seconds
   System Clock:                    1.000000GHz
   Transistor Latency:              1ns
   Runtime:                         10932 cycles
   Runtime:                         10.932000 us
   Stalls:                          0 cycles
   Executed Nodes:                  10931 cycles

********************************************************************************
   ========= Performance Analysis =================
   Setup Time:                      14118387125.000000ns
   Simulation Time:                 230455793161.000000ns
   System Clock:                    1.000000GHz
   Transistor Latency:              0ns
   Runtime:                         10932 cycles
   Runtime:                         0.000001 seconds
   Stalls:                          0 cycles
       Load Only:                   0 cycles
       Store Only:                  0 cycles
       Compute Only:                0 cycles
       Compute & Store:             0 cycles
       Load & Store:                0 cycles
       Load & Compute:              0 cycles
       Load & Compute & Store:      0 cycles
   Executed Nodes:                  10931 cycles
       Load Only:                   0 cycles
       Store Only:                  5 cycles
       Compute Only:                1 cycles
       Compute & Store:             21 cycles
       Load & Store:                0 cycles
       Load & Compute:              7 cycles
       Load & Compute & Store:      10897 cycles

   ========= Runtime FU's ========= (Max | Avg) ===
   Counter FU's:                      32 | 0.046838
   Integer Add/Sub FU's:               0 | 0.000000
   Integer Mul/Div FU's:               0 | 0.000000
   Integer Shifter FU's:               0 | 0.000000
   Integer Bitwise FU's:               1 | 0.000091
   Floating Point Float Add/Sub:      34 | 0.044252
   Floating Point Double Add/Sub:      0 | 0.000000
   Floating Point Float Mul/Div:       0 | 0.000000
   Floating Point Double Mul/Div:      0 | 0.000000
   0 Cycle Compare FU's:             102 | 0.046974
   GEP Instruction FU's:              96 | 0.046835
   Type Conversion FU's:               7 | 0.006782

   ========= Static FU's ==========================
   Counter FU's:                    0
   Integer Add/Sub FU's:            0
   Integer Mul/Div FU's:            0
   Integer Shifter FU's:            0
   Integer Bitwise FU's:            0
   Floating Point Float Add/Sub:    0
   Floating Point Double Add/Sub:   0
   Floating Point Float Mul/Div:    0
   Floating Point Double Mul/Div:   0
   0 Cycle Compare FU's:            0
   GEP Instruction FU's:            0
   Type Conversion FU's:            0
   Other:                           0

   ========= Pipeline Register Usage =============
   Total Number of Registers:       5641
   Max Register Usage Per Cycle:    138
   Avg Register Usage Per Cycle:    12.130992
   Avg Register Size (Bytes):       5.980606

   ========= Memory Configuration =================
   Cache Bus Ports:                 0
   Shared Cache Size:               0kB
   Local Bus Ports:                 0
   Private SPM Size:                256kB
   Private Read Ports:              0
   Private Write Ports:             0
   Private Read Bus Width:          64
   Private Write Bus Width:         64
       Memory Reads:                0
       Memory Writes:               0
   ========= Power Analysis ======================
   FU Leakage Power:                0.519269 mW 
   FU Dynamic Power:                0.154621 mW 
   FU Total Power:                  0.673890 mW 

   Registers Leakage Power:          0.005281 mW 
   Registers Dynamic Power:          0.015326 mW 
       Register Reads (Bits):        132616
       Register Writes (Bits):       133658
   Registers Total Power:            0.020607 mW

   SPM Leakage Power:               0.104100 mW
   SPM Read Dynamic Power:          5.190014 mW
   SPM Write Dynamic Power:         3.846212 mW
   SPM Total Power:                 9.140327 mW

   SPM Energy Per Read Access:      0.170493 nJ
   SPM Energy Per Write Access:     0.218190 nJ

   Cache Leakage Power:             0.000000 mW
   Cache Read Dynamic Power:        0.000000 mW
   Cache Write Dynamic Power:       0.000000 mW
   Cache Total Power:               0.000000 mW

   Accelerator Power:               0.694497 mW
   Accelerator Power (SPM):         9.834824 mW
   Accelerator Power (Cache):       0.694497 mW

   ========= Area Analysis =======================
   FU Area:                         70212.562500 um^2 (0.070213 mm^2)
   Register Area:                   429.271088 um^2 (0.000429 mm^2)
   SPM Area:                        2177.365505 um^2 (0.002177 mm^2)
   Cache Area:                      0.000000 um^2 (0.000000 mm^2)

   Accelerator Area:                70641.835938 um^2 (0.070642 mm^2)
   Accelerator Area (SPM):          72819.201442 um^2 (0.072819 mm^2)
   Accelerator Area (Cache):        70641.835938 um^2 (0.070642 mm^2)

   ========= SPM Resizing  =======================
   SPM Optimized Leakage Power:     0.004248 mW
   SPM Opt Area:                    178.524902 um^2

5446446250: global: Timer #0 started at tick 5446446250
5446735000: global: Timer #2 started at tick 5446735000
5447114375: global: Timer #2 stopped at tick 5447114375. Duration: 379375
5447234375: global: Timer #7 started at tick 5447234375
5447876625: system.acctest.elem_matrix0_dma: SRC:0x0000000024020020, DST:0x00000000821f5200, LEN:65536
5448005000: global: Timer #7 stopped at tick 5448005000. Duration: 770625
5448238125: global: Timer #0 stopped at tick 5448238125. Duration: 1791875
5448252500: global: Number of accelerators running = 2
5454156625: system.acctest.elem_matrix0_dma: Transfer completed in 6.28 us
5454232500: global: Timer #0 started at tick 5454232500
5454559375: global: Timer #1 started at tick 5454559375
5454630000: global: Timer #1 stopped at tick 5454630000. Duration: 70625
5454838125: global: DAG ID = 1
5454850625: global: Node ID = 9
5454885000: global: Node deadline difference = -2407
5454897500: global: Predicted memory time / byte = 0.000182663 us/byte
5454910000: global: Predicted memory time = 23.942 us
5454922500: global: Predicted memory time / byte = 0.000182663 us/byte
5454935000: global: Predicted memory time = 11.971 us
5454947500: global: Predicted memory time / byte = 0.000182297 us/byte
5454960000: global: Predicted memory time = 11.947 us
5454972500: global: Predicted memory time / byte = 9.57184e-05 us/byte
5454985000: global: Predicted memory time = 6.273 us
5454997500: global: Predicted memory access size = 0
5455010000: global: Predicted memory access size = 65536
5455022500: global: Predicted memory access size = 0
5455035000: global: Predicted memory access size = 65536
5455115625: global: Timer #6 started at tick 5455115625
5455226875: global: Timer #7 started at tick 5455226875
5455861625: system.acctest.elem_matrix0_dma: SRC:0x00000000822553c0, DST:0x0000000024000020, LEN:65536
5455992500: global: Timer #7 stopped at tick 5455992500. Duration: 765625
5456015000: global: Timer #6 stopped at tick 5456015000. Duration: 899375
5456086875: global: Timer #0 stopped at tick 5456086875. Duration: 1854375
5456101250: global: Number of accelerators running = 2
5467832625: system.acctest.elem_matrix0_dma: Transfer completed in 11.971 us
5467909375: global: Timer #0 started at tick 5467909375
5468229375: global: Timer #1 started at tick 5468229375
5468283125: global: Timer #1 stopped at tick 5468283125. Duration: 53750
5468505000: global: Timer #6 started at tick 5468505000
5468576875: global: Timer #7 started at tick 5468576875
5469222375: system.acctest.elem_matrix0_dma: SRC:0x00000000820f5080, DST:0x0000000024010020, LEN:65536
5469353125: global: Timer #7 stopped at tick 5469353125. Duration: 776250
5469378125: global: Timer #6 stopped at tick 5469378125. Duration: 873125
5469473125: global: Timer #0 stopped at tick 5469473125. Duration: 1563750
5469487500: global: Number of accelerators running = 2
5481237375: system.acctest.elem_matrix0_dma: Transfer completed in 12.015 us
5481313125: global: Timer #0 started at tick 5481313125
5481635000: global: Timer #1 started at tick 5481635000
5481688750: global: Timer #1 stopped at tick 5481688750. Duration: 53750
5481986875: global: Timer #6 started at tick 5481986875
5482050000: global: Timer #7 started at tick 5482050000
5483058125: global: Timer #7 stopped at tick 5483058125. Duration: 1008125
5483108750: global: Timer #6 stopped at tick 5483108750. Duration: 1121875
5483210000: global: Timer #0 stopped at tick 5483210000. Duration: 1896875
5483224375: global: Number of accelerators running = 2
********************************************************************************
system.acctest.elem_matrix0.compute
   ========= Performance Analysis =============
   Setup Time:                      9.712690seconds
   Simulation Time:                 239.733371seconds
   System Clock:                    1.000000GHz
   Transistor Latency:              1ns
   Runtime:                         10932 cycles
   Runtime:                         10.932000 us
   Stalls:                          1 cycles
   Executed Nodes:                  10930 cycles

********************************************************************************
   ========= Performance Analysis =================
   Setup Time:                      9712690021.000000ns
   Simulation Time:                 239733370783.000000ns
   System Clock:                    1.000000GHz
   Transistor Latency:              0ns
   Runtime:                         10932 cycles
   Runtime:                         0.000001 seconds
   Stalls:                          1 cycles
       Load Only:                   0 cycles
       Store Only:                  1 cycles
       Compute Only:                0 cycles
       Compute & Store:             0 cycles
       Load & Store:                0 cycles
       Load & Compute:              0 cycles
       Load & Compute & Store:      0 cycles
   Executed Nodes:                  10930 cycles
       Load Only:                   0 cycles
       Store Only:                  4 cycles
       Compute Only:                1 cycles
       Compute & Store:             21 cycles
       Load & Store:                0 cycles
       Load & Compute:              6 cycles
       Load & Compute & Store:      10898 cycles

   ========= Runtime FU's ========= (Max | Avg) ===
   Counter FU's:                      32 | 0.046838
   Integer Add/Sub FU's:               0 | 0.000000
   Integer Mul/Div FU's:               0 | 0.000000
   Integer Shifter FU's:               0 | 0.000000
   Integer Bitwise FU's:               1 | 0.000091
   Floating Point Float Add/Sub:       0 | 0.000000
   Floating Point Double Add/Sub:      0 | 0.000000
   Floating Point Float Mul/Div:      34 | 0.044252
   Floating Point Double Mul/Div:      0 | 0.000000
   0 Cycle Compare FU's:             102 | 0.046945
   GEP Instruction FU's:              96 | 0.046835
   Type Conversion FU's:               7 | 0.006782

   ========= Static FU's ==========================
   Counter FU's:                    0
   Integer Add/Sub FU's:            0
   Integer Mul/Div FU's:            0
   Integer Shifter FU's:            0
   Integer Bitwise FU's:            0
   Floating Point Float Add/Sub:    0
   Floating Point Double Add/Sub:   0
   Floating Point Float Mul/Div:    0
   Floating Point Double Mul/Div:   0
   0 Cycle Compare FU's:            0
   GEP Instruction FU's:            0
   Type Conversion FU's:            0
   Other:                           0

   ========= Pipeline Register Usage =============
   Total Number of Registers:       5641
   Max Register Usage Per Cycle:    137
   Avg Register Usage Per Cycle:    12.130992
   Avg Register Size (Bytes):       5.980606

   ========= Memory Configuration =================
   Cache Bus Ports:                 0
   Shared Cache Size:               0kB
   Local Bus Ports:                 0
   Private SPM Size:                256kB
   Private Read Ports:              0
   Private Write Ports:             0
   Private Read Bus Width:          64
   Private Write Bus Width:         64
       Memory Reads:                0
       Memory Writes:               0
   ========= Power Analysis ======================
   FU Leakage Power:                0.045377 mW 
   FU Dynamic Power:                0.142576 mW 
   FU Total Power:                  0.187953 mW 

   Registers Leakage Power:          0.005281 mW 
   Registers Dynamic Power:          0.015326 mW 
       Register Reads (Bits):        132616
       Register Writes (Bits):       133658
   Registers Total Power:            0.020607 mW

   SPM Leakage Power:               0.104100 mW
   SPM Read Dynamic Power:          5.599688 mW
   SPM Write Dynamic Power:         4.937352 mW
   SPM Total Power:                 10.641140 mW

   SPM Energy Per Read Access:      0.170493 nJ
   SPM Energy Per Write Access:     0.218190 nJ

   Cache Leakage Power:             0.000000 mW
   Cache Read Dynamic Power:        0.000000 mW
   Cache Write Dynamic Power:       0.000000 mW
   Cache Total Power:               0.000000 mW

   Accelerator Power:               0.208559 mW
   Accelerator Power (SPM):         10.849700 mW
   Accelerator Power (Cache):       0.208559 mW

   ========= Area Analysis =======================
   FU Area:                         5472.068359 um^2 (0.005472 mm^2)
   Register Area:                   429.271088 um^2 (0.000429 mm^2)
   SPM Area:                        2177.365505 um^2 (0.002177 mm^2)
   Cache Area:                      0.000000 um^2 (0.000000 mm^2)

   Accelerator Area:                5901.339355 um^2 (0.005901 mm^2)
   Accelerator Area (SPM):          8078.704860 um^2 (0.008079 mm^2)
   Accelerator Area (Cache):        5901.339355 um^2 (0.005901 mm^2)

   ========= SPM Resizing  =======================
   SPM Optimized Leakage Power:     0.004248 mW
   SPM Opt Area:                    178.524902 um^2

5493951250: global: Timer #0 started at tick 5493951250
5494193125: global: Timer #2 started at tick 5494193125
5494468125: global: Timer #2 stopped at tick 5494468125. Duration: 275000
5494568750: global: Timer #7 started at tick 5494568750
5495204500: system.acctest.elem_matrix0_dma: SRC:0x0000000024030020, DST:0x0000000082175200, LEN:65536
5495333125: global: Timer #7 stopped at tick 5495333125. Duration: 764375
5495561875: global: Timer #0 stopped at tick 5495561875. Duration: 1610625
5495576250: global: Number of accelerators running = 2
5501535500: system.acctest.elem_matrix0_dma: Transfer completed in 6.331 us
5501611250: global: Timer #0 started at tick 5501611250
5501938125: global: Timer #1 started at tick 5501938125
5502005625: global: Timer #1 stopped at tick 5502005625. Duration: 67500
5502211875: global: DAG ID = 1
5502224375: global: Node ID = 1
5502246875: global: Node deadline difference = -2417
5502259375: global: Predicted memory time / byte = 0.000186142 us/byte
5502271875: global: Predicted memory time = 24.398 us
5502284375: global: Predicted memory time / byte = 0.000186142 us/byte
5502296875: global: Predicted memory time = 12.199 us
5502309375: global: Predicted memory time / byte = 0.000182869 us/byte
5502321875: global: Predicted memory time = 23.969 us
5502334375: global: Predicted memory time / byte = 9.64813e-05 us/byte
5502346875: global: Predicted memory time = 6.323 us
5502359375: global: Predicted memory access size = 0
5502371875: global: Predicted memory access size = 131072
5502384375: global: Predicted memory access size = 0
5502396875: global: Predicted memory access size = 65536
5502482500: global: Timer #6 started at tick 5502482500
5502577500: global: Timer #7 started at tick 5502577500
5503209500: system.acctest.elem_matrix0_dma: SRC:0x00000000821f5200, DST:0x0000000024000020, LEN:65536
5503333750: global: Timer #7 stopped at tick 5503333750. Duration: 756250
5503348750: global: Timer #6 stopped at tick 5503348750. Duration: 866250
5503420625: global: Timer #0 stopped at tick 5503420625. Duration: 1809375
5503435000: global: Number of accelerators running = 2
5515203500: system.acctest.elem_matrix0_dma: Transfer completed in 11.994 us
5515279375: global: Timer #0 started at tick 5515279375
5515607500: global: Timer #1 started at tick 5515607500
5515661250: global: Timer #1 stopped at tick 5515661250. Duration: 53750
5515885000: global: Timer #6 started at tick 5515885000
5515956875: global: Timer #7 started at tick 5515956875
5516602375: system.acctest.elem_matrix0_dma: SRC:0x0000000082135080, DST:0x0000000024010020, LEN:65536
5516731875: global: Timer #7 stopped at tick 5516731875. Duration: 775000
5516761250: global: Timer #6 stopped at tick 5516761250. Duration: 876250
5516856250: global: Timer #0 stopped at tick 5516856250. Duration: 1576875
5516870625: global: Number of accelerators running = 2
5528598375: system.acctest.elem_matrix0_dma: Transfer completed in 11.996 us
5528674375: global: Timer #0 started at tick 5528674375
5528996250: global: Timer #1 started at tick 5528996250
5529050000: global: Timer #1 stopped at tick 5529050000. Duration: 53750
5529350000: global: Timer #6 started at tick 5529350000
5529413125: global: Timer #7 started at tick 5529413125
5530423125: global: Timer #7 stopped at tick 5530423125. Duration: 1010000
5530466875: global: Timer #6 stopped at tick 5530466875. Duration: 1116875
5530563750: global: Timer #0 stopped at tick 5530563750. Duration: 1889375
5530578125: global: Number of accelerators running = 2
********************************************************************************
system.acctest.elem_matrix0.compute
   ========= Performance Analysis =============
   Setup Time:                      9.286877seconds
   Simulation Time:                 232.398813seconds
   System Clock:                    1.000000GHz
   Transistor Latency:              1ns
   Runtime:                         10932 cycles
   Runtime:                         10.932000 us
   Stalls:                          1 cycles
   Executed Nodes:                  10930 cycles

********************************************************************************
   ========= Performance Analysis =================
   Setup Time:                      9286877307.000000ns
   Simulation Time:                 232398813340.000000ns
   System Clock:                    1.000000GHz
[...]

   SPM Leakage Power:               0.104100 mW
   SPM Read Dynamic Power:          23.625073 mW
   SPM Write Dynamic Power:         19.325354 mW
   SPM Total Power:                 43.054527 mW

   SPM Energy Per Read Access:      0.170493 nJ
   SPM Energy Per Write Access:     0.218190 nJ

   Cache Leakage Power:             0.000000 mW
   Cache Read Dynamic Power:        0.000000 mW
   Cache Write Dynamic Power:       0.000000 mW
   Cache Total Power:               0.000000 mW

   Accelerator Power:               0.058053 mW
   Accelerator Power (SPM):         43.112580 mW
   Accelerator Power (Cache):       0.058053 mW

   ========= Area Analysis =======================
   FU Area:                         50.369961 um^2 (0.000050 mm^2)
   Register Area:                   429.271088 um^2 (0.000429 mm^2)
   SPM Area:                        2177.365505 um^2 (0.002177 mm^2)
   Cache Area:                      0.000000 um^2 (0.000000 mm^2)

   Accelerator Area:                479.641052 um^2 (0.000480 mm^2)
   Accelerator Area (SPM):          2657.006557 um^2 (0.002657 mm^2)
   Accelerator Area (Cache):        479.641052 um^2 (0.000480 mm^2)

   ========= SPM Resizing  =======================
   SPM Optimized Leakage Power:     0.004248 mW
   SPM Opt Area:                    178.524902 um^2

19794300000: global: Timer #0 started at tick 19794300000
19794606875: global: Timer #2 started at tick 19794606875
19794914375: global: Timer #2 stopped at tick 19794914375. Duration: 307500
19795141250: global: DAG ID = 0
19795153750: global: Node ID = 19
19795166875: global: Node deadline difference = -511
19795179375: global: Predicted memory time / byte = 0.000210266 us/byte
19795191875: global: Predicted memory time = 27.56 us
19795204375: global: Predicted memory time / byte = 0.000210266 us/byte
19795216875: global: Predicted memory time = 13.78 us
19795229375: global: Predicted memory time / byte = 0.000156357 us/byte
19795241875: global: Predicted memory time = 20.494 us
19795254375: global: Predicted memory time / byte = 0 us/byte
19795266875: global: Predicted memory time = 0 us
19795279375: global: Predicted memory access size = 0
19795291875: global: Predicted memory access size = 131072
19795304375: global: Predicted memory access size = 0
19795316875: global: Predicted memory access size = 0
19795382500: global: Timer #6 started at tick 19795382500
19795465625: global: Timer #7 started at tick 19795465625
19796095875: system.acctest.convolution0_dma: SRC:0x0000000024030020, DST:0x0000000022000020, LEN:65536
19796225000: global: Timer #7 stopped at tick 19796225000. Duration: 759375
19796240000: global: Timer #6 stopped at tick 19796240000. Duration: 857500
19796331250: global: Timer #0 stopped at tick 19796331250. Duration: 2031250
19796345625: global: Number of accelerators running = 1
19806356875: system.acctest.convolution0_dma: Transfer completed in 10.261 us
19806441250: global: Timer #0 started at tick 19806441250
19806749375: global: Timer #1 started at tick 19806749375
19806803125: global: Timer #1 stopped at tick 19806803125. Duration: 53750
19807025000: global: Timer #6 started at tick 19807025000
19807066875: global: Timer #7 started at tick 19807066875
19807701625: system.acctest.convolution0_dma: SRC:0x0000000082092940, DST:0x0000000022030020, LEN:100
19807797625: system.acctest.convolution0_dma: Transfer completed in 0.096 us
19807826250: global: Timer #7 stopped at tick 19807826250. Duration: 759375
19807846250: global: Timer #6 stopped at tick 19807846250. Duration: 821250
19807942500: global: Timer #0 stopped at tick 19807942500. Duration: 1501250
19807956875: global: Number of accelerators running = 1
19808065000: global: Timer #0 started at tick 19808065000
19808517500: global: Timer #6 started at tick 19808517500
19808568125: global: Timer #7 started at tick 19808568125
19809572500: global: Timer #7 stopped at tick 19809572500. Duration: 1004375
19809608750: global: Timer #6 stopped at tick 19809608750. Duration: 1091250
19809698125: global: Timer #0 stopped at tick 19809698125. Duration: 1633125
19809712500: global: Number of accelerators running = 1
********************************************************************************
system.acctest.convolution0.compute
   ========= Performance Analysis =============
   Setup Time:                      0.419656seconds
   Simulation Time:                 197.382670seconds
   System Clock:                    1.000000GHz
   Transistor Latency:              1ns
   Runtime:                         1545605 cycles
   Runtime:                         1545.605000 us
   Stalls:                          0 cycles
   Executed Nodes:                  1545604 cycles

********************************************************************************
   ========= Performance Analysis =================
   Setup Time:                      419656117.000000ns
   Simulation Time:                 197382670122.000000ns
   System Clock:                    1.000000GHz
   Transistor Latency:              0ns
   Runtime:                         1545605 cycles
   Runtime:                         0.000155 seconds
   Stalls:                          0 cycles
       Load Only:                   0 cycles
       Store Only:                  0 cycles
       Compute Only:                0 cycles
       Compute & Store:             0 cycles
       Load & Store:                0 cycles
       Load & Compute:              0 cycles
       Load & Compute & Store:      0 cycles
   Executed Nodes:                  1545604 cycles
       Load Only:                   0 cycles
       Store Only:                  0 cycles
       Compute Only:                1127274 cycles
       Compute & Store:             16374 cycles
       Load & Store:                0 cycles
       Load & Compute:              401946 cycles
       Load & Compute & Store:      10 cycles

   ========= Runtime FU's ========= (Max | Avg) ===
   Counter FU's:                       3 | 0.112298
   Integer Add/Sub FU's:               4 | 0.211564
   Integer Mul/Div FU's:               1 | 0.052505
   Integer Shifter FU's:              10 | 0.005268
   Integer Bitwise FU's:               2 | 0.184266
   Floating Point Float Add/Sub:       5 | 0.207991
   Floating Point Double Add/Sub:      0 | 0.000000
   Floating Point Float Mul/Div:       2 | 0.130117
   Floating Point Double Mul/Div:      0 | 0.000000
   0 Cycle Compare FU's:              40 | 0.145956
   GEP Instruction FU's:               4 | 0.132683
   Type Conversion FU's:               7 | 0.186618

   ========= Static FU's ==========================
   Counter FU's:                    0
   Integer Add/Sub FU's:            0
   Integer Mul/Div FU's:            0
   Integer Shifter FU's:            0
   Integer Bitwise FU's:            0
   Floating Point Float Add/Sub:    0
   Floating Point Double Add/Sub:   0
   Floating Point Float Mul/Div:    0
   Floating Point Double Mul/Div:   0
   0 Cycle Compare FU's:            0
   GEP Instruction FU's:            0
   Type Conversion FU's:            0
   Other:                           0

   ========= Pipeline Register Usage =============
   Total Number of Registers:       1702
   Max Register Usage Per Cycle:    20
   Avg Register Usage Per Cycle:    6.348199
   Avg Register Size (Bytes):       5.569148

   ========= Memory Configuration =================
   Cache Bus Ports:                 0
   Shared Cache Size:               0kB
   Local Bus Ports:                 0
   Private SPM Size:                192kB
   Private Read Ports:              0
   Private Write Ports:             0
   Private Read Bus Width:          64
   Private Write Bus Width:         64
       Memory Reads:                0
       Memory Writes:               0
   ========= Power Analysis ======================
   FU Leakage Power:                0.196912 mW 
   FU Dynamic Power:                2743.028564 mW 
   FU Total Power:                  2743.225586 mW 

   Registers Leakage Power:          0.002459 mW 
   Registers Dynamic Power:          75.251152 mW 
       Register Reads (Bits):        9811808
       Register Writes (Bits):       10049727
   Registers Total Power:            75.253609 mW

   SPM Leakage Power:               0.078311 mW
   SPM Read Dynamic Power:          34.886951 mW
   SPM Write Dynamic Power:         5.103456 mW
   SPM Total Power:                 40.068718 mW

   SPM Energy Per Read Access:      0.130935 nJ
   SPM Energy Per Write Access:     0.166637 nJ

   Cache Leakage Power:             0.000000 mW
   Cache Read Dynamic Power:        0.000000 mW
   Cache Write Dynamic Power:       0.000000 mW
   Cache Total Power:               0.000000 mW

   Accelerator Power:               2818.479248 mW
   Accelerator Power (SPM):         2858.547967 mW
   Accelerator Power (Cache):       2818.479248 mW

   ========= Area Analysis =======================
   FU Area:                         22931.867188 um^2 (0.022932 mm^2)
   Register Area:                   199.868912 um^2 (0.000200 mm^2)
   SPM Area:                        1748.188735 um^2 (0.001748 mm^2)
   Cache Area:                      0.000000 um^2 (0.000000 mm^2)

   Accelerator Area:                23131.736328 um^2 (0.023132 mm^2)
   Accelerator Area (SPM):          24879.925063 um^2 (0.024880 mm^2)
   Accelerator Area (Cache):        23131.736328 um^2 (0.023132 mm^2)

   ========= SPM Resizing  =======================
   SPM Optimized Leakage Power:     0.002053 mW
   SPM Opt Area:                    145.024971 um^2

21355142500: global: Timer #0 started at tick 21355142500
21355373750: global: Timer #2 started at tick 21355373750
21355623125: global: Timer #2 stopped at tick 21355623125. Duration: 249375
21355844375: global: DAG ID = 0
21355856875: global: Node ID = 20
21355870000: global: Node deadline difference = -528
21355882500: global: Predicted memory time / byte = 0.000156265 us/byte
21355895000: global: Predicted memory time = 10.2566 us
21355907500: global: Predicted memory time / byte = 0.000156265 us/byte
21355920000: global: Predicted memory time = 10.241 us
21355932500: global: Predicted memory time / byte = 0.000156418 us/byte
21355945000: global: Predicted memory time = 10.251 us
21355957500: global: Predicted memory time / byte = 0 us/byte
21355970000: global: Predicted memory time = 0 us
21355982500: global: Predicted memory access size = 0
21355995000: global: Predicted memory access size = 65536
21356007500: global: Predicted memory access size = 0
21356020000: global: Predicted memory access size = 0
21356102500: global: Timer #6 started at tick 21356102500
21356253125: global: Timer #7 started at tick 21356253125
21356881625: system.acctest.elem_matrix0_dma: SRC:0x00000000820c2e00, DST:0x0000000024000020, LEN:65536
21357005000: global: Timer #7 stopped at tick 21357005000. Duration: 751875
21357020000: global: Timer #6 stopped at tick 21357020000. Duration: 917500
21357088750: global: Timer #0 stopped at tick 21357088750. Duration: 1946250
21357103125: global: Number of accelerators running = 1
21368786625: system.acctest.elem_matrix0_dma: Transfer completed in 11.905 us
21368871250: global: Timer #0 started at tick 21368871250
21369190625: global: Timer #1 started at tick 21369190625
21369244375: global: Timer #1 stopped at tick 21369244375. Duration: 53750
21369468125: global: Timer #6 started at tick 21369468125
21369548750: global: Timer #7 started at tick 21369548750
21370180875: system.acctest.elem_matrix0_dma: SRC:0x0000000022010020, DST:0x0000000024010020, LEN:65536
21370310000: global: Timer #7 stopped at tick 21370310000. Duration: 761250
21370327500: global: Timer #6 stopped at tick 21370327500. Duration: 859375
21370423750: global: Timer #0 stopped at tick 21370423750. Duration: 1552500
21370438125: global: Number of accelerators running = 1
21380441875: system.acctest.elem_matrix0_dma: Transfer completed in 10.261 us
21380517500: global: Timer #0 started at tick 21380517500
21380822500: global: Timer #1 started at tick 21380822500
21380876250: global: Timer #1 stopped at tick 21380876250. Duration: 53750
21381157500: global: Timer #6 started at tick 21381157500
21381223750: global: Timer #7 started at tick 21381223750
21382217500: global: Timer #7 stopped at tick 21382217500. Duration: 993750
21382260625: global: Timer #6 stopped at tick 21382260625. Duration: 1103125
21382350000: global: Timer #0 stopped at tick 21382350000. Duration: 1832500
21382364375: global: Number of accelerators running = 1
********************************************************************************
system.acctest.elem_matrix0.compute
   ========= Performance Analysis =============
   Setup Time:                      3.754762seconds
   Simulation Time:                 73.360677seconds
   System Clock:                    1.000000GHz
   Transistor Latency:              1ns
   Runtime:                         10932 cycles
   Runtime:                         10.932000 us
   Stalls:                          1 cycles
   Executed Nodes:                  10930 cycles

********************************************************************************
   ========= Performance Analysis =================
   Setup Time:                      3754761860.000000ns
   Simulation Time:                 73360677263.000000ns
   System Clock:                    1.000000GHz
   Transistor Latency:              0ns
   Runtime:                         10932 cycles
   Runtime:                         0.000001 seconds
   Stalls:                          1 cycles
       Load Only:                   0 cycles
       Store Only:                  1 cycles
       Compute Only:                0 cycles
       Compute & Store:             0 cycles
       Load & Store:                0 cycles
       Load & Compute:              0 cycles
       Load & Compute & Store:      0 cycles
   Executed Nodes:                  10930 cycles
       Load Only:                   0 cycles
       Store Only:                  4 cycles
       Compute Only:                1 cycles
       Compute & Store:             21 cycles
       Load & Store:                0 cycles
       Load & Compute:              6 cycles
       Load & Compute & Store:      10898 cycles

   ========= Runtime FU's ========= (Max | Avg) ===
   Counter FU's:                      32 | 0.046838
   Integer Add/Sub FU's:               0 | 0.000000
   Integer Mul/Div FU's:               0 | 0.000000
   Integer Shifter FU's:               0 | 0.000000
   Integer Bitwise FU's:               1 | 0.000091
   Floating Point Float Add/Sub:       0 | 0.000000
   Floating Point Double Add/Sub:      0 | 0.000000
   Floating Point Float Mul/Div:      34 | 0.044252
   Floating Point Double Mul/Div:      0 | 0.000000
   0 Cycle Compare FU's:             102 | 0.046945
   GEP Instruction FU's:              96 | 0.046835
   Type Conversion FU's:               7 | 0.006782

   ========= Static FU's ==========================
   Counter FU's:                    0
   Integer Add/Sub FU's:            0
   Integer Mul/Div FU's:            0
   Integer Shifter FU's:            0
   Integer Bitwise FU's:            0
   Floating Point Float Add/Sub:    0
   Floating Point Double Add/Sub:   0
   Floating Point Float Mul/Div:    0
   Floating Point Double Mul/Div:   0
   0 Cycle Compare FU's:            0
   GEP Instruction FU's:            0
   Type Conversion FU's:            0
   Other:                           0

   ========= Pipeline Register Usage =============
   Total Number of Registers:       5641
   Max Register Usage Per Cycle:    137
   Avg Register Usage Per Cycle:    12.130992
   Avg Register Size (Bytes):       5.980606

   ========= Memory Configuration =================
   Cache Bus Ports:                 0
   Shared Cache Size:               0kB
   Local Bus Ports:                 0
   Private SPM Size:                256kB
   Private Read Ports:              0
   Private Write Ports:             0
   Private Read Bus Width:          64
   Private Write Bus Width:         64
       Memory Reads:                0
       Memory Writes:               0
   ========= Power Analysis ======================
   FU Leakage Power:                0.045377 mW 
   FU Dynamic Power:                0.142576 mW 
   FU Total Power:                  0.187953 mW 

   Registers Leakage Power:          0.005281 mW 
   Registers Dynamic Power:          0.015326 mW 
       Register Reads (Bits):        132616
       Register Writes (Bits):       133658
   Registers Total Power:            0.020607 mW

   SPM Leakage Power:               0.104100 mW
   SPM Read Dynamic Power:          23.725066 mW
   SPM Write Dynamic Power:         19.380842 mW
   SPM Total Power:                 43.210008 mW

   SPM Energy Per Read Access:      0.170493 nJ
   SPM Energy Per Write Access:     0.218190 nJ

   Cache Leakage Power:             0.000000 mW
   Cache Read Dynamic Power:        0.000000 mW
   Cache Write Dynamic Power:       0.000000 mW
   Cache Total Power:               0.000000 mW

   Accelerator Power:               0.208559 mW
   Accelerator Power (SPM):         43.418567 mW
   Accelerator Power (Cache):       0.208559 mW

   ========= Area Analysis =======================
   FU Area:                         5472.068359 um^2 (0.005472 mm^2)
   Register Area:                   429.271088 um^2 (0.000429 mm^2)
   SPM Area:                        2177.365505 um^2 (0.002177 mm^2)
   Cache Area:                      0.000000 um^2 (0.000000 mm^2)

   Accelerator Area:                5901.339355 um^2 (0.005901 mm^2)
   Accelerator Area (SPM):          8078.704860 um^2 (0.008079 mm^2)
   Accelerator Area (Cache):        5901.339355 um^2 (0.005901 mm^2)

   ========= SPM Resizing  =======================
   SPM Optimized Leakage Power:     0.004248 mW
   SPM Opt Area:                    178.524902 um^2

21393114375: global: Timer #0 started at tick 21393114375
21393313125: global: Timer #7 started at tick 21393313125
21393960875: system.acctest.elem_matrix0_dma: SRC:0x0000000024020020, DST:0x00000000820c2e00, LEN:65536
21394088750: global: Timer #7 stopped at tick 21394088750. Duration: 775625
21394318750: global: Timer #0 stopped at tick 21394318750. Duration: 1204375
21394333125: global: Number of accelerators running = 1
21400253875: system.acctest.elem_matrix0_dma: Transfer completed in 6.293 us
21400336875: global: Timer #0 started at tick 21400336875
21400679375: global: Timer #1 started at tick 21400679375
21400737500: global: Timer #1 stopped at tick 21400737500. Duration: 58125
21400936875: global: DAG ID = 0
21400949375: global: Node ID = 21
21400973125: global: DAG execution time = 16127
21400986250: global: DAG deadline difference = -540
21401003750: global: Node deadline difference = -540
21401016250: global: Predicted memory time / byte = 0.000156418 us/byte
21401028750: global: Predicted memory time = 20.502 us
21401041250: global: Predicted memory time / byte = 0.000156418 us/byte
21401053750: global: Predicted memory time = 10.251 us
21401066250: global: Predicted memory time / byte = 0.000168968 us/byte
21401078750: global: Predicted memory time = 22.147 us
21401091250: global: Predicted memory time / byte = 9.60541e-05 us/byte
21401103750: global: Predicted memory time = 6.295 us
21401116250: global: Predicted memory access size = 0
21401128750: global: Predicted memory access size = 131072
21401141250: global: Predicted memory access size = 0
21401153750: global: Predicted memory access size = 65536
21401260625: global: Timer #0 stopped at tick 21401260625. Duration: 923750
21401275000: global: Number of accelerators running = 0
21401354375: global: Number of forwards = 92
21401499375: global: Number of colocations = 66
21401518125: global: Number of DAG deadlines met = 2
21401536875: global: Number of node deadlines met = 142
21401570625: global: Total predicted compute time = 16863 us
Exiting @ tick 21401794375 because m5_exit instruction encountered
