
---------- Begin Simulation Statistics ----------
final_tick                               104242652500                       # Number of ticks from beginning of simulation (restored from checkpoints and never reset)
host_inst_rate                                    501                       # Simulator instruction rate (inst/s)
host_mem_usage                               26278144                       # Number of bytes of host memory used
host_op_rate                                      514                       # Simulator op (including micro ops) rate (op/s)
host_seconds                                131497.55                       # Real time elapsed on the host
host_tick_rate                                 419400                       # Simulator tick rate (ticks/s)
sim_freq                                 1000000000000                       # Frequency of simulated ticks
sim_insts                                    65818417                       # Number of instructions simulated
sim_ops                                      67627383                       # Number of ops (including micro ops) simulated
sim_seconds                                  0.055150                       # Number of seconds simulated
sim_ticks                                 55150057500                       # Number of ticks simulated
system.acctest.coherency_bus.snoop_filter.hit_multi_requests            0                       # Number of requests hitting in the snoop filter with multiple (>1) holders of the requested data.
system.acctest.coherency_bus.snoop_filter.hit_multi_snoops            0                       # Number of snoops hitting in the snoop filter with multiple (>1) holders of the requested data.
system.acctest.coherency_bus.snoop_filter.hit_single_requests            0                       # Number of requests hitting in the snoop filter with a single holder of the requested data.
system.acctest.coherency_bus.snoop_filter.hit_single_snoops            0                       # Number of snoops hitting in the snoop filter with a single holder of the requested data.
system.acctest.coherency_bus.snoop_filter.tot_requests            0                       # Total number of requests made to the snoop filter.
system.acctest.coherency_bus.snoop_filter.tot_snoops            0                       # Total number of snoops made to the snoop filter.
system.cf0.dma_read_bytes                           0                       # Number of bytes transfered via DMA reads (not PRD).
system.cf0.dma_read_full_pages                      0                       # Number of full page size DMA reads (not PRD).
system.cf0.dma_read_txs                             0                       # Number of DMA read transactions (not PRD).
system.cf0.dma_write_bytes                          0                       # Number of bytes transfered via DMA writes.
system.cf0.dma_write_full_pages                     0                       # Number of full page size DMA writes.
system.cf0.dma_write_txs                            0                       # Number of DMA write transactions.
system.cpu.branchPred.BTBCorrect                    0                       # Number of correct BTB predictions (this stat may not work properly.
system.cpu.branchPred.BTBHitPct             73.209305                       # BTB Hit Percentage
system.cpu.branchPred.BTBHits                  188727                       # Number of BTB hits
system.cpu.branchPred.BTBLookups               257791                       # Number of BTB lookups
system.cpu.branchPred.RASInCorrect               3650                       # Number of incorrect RAS predictions.
system.cpu.branchPred.condIncorrect             18557                       # Number of conditional branches incorrect
system.cpu.branchPred.condPredicted            219803                       # Number of conditional branches predicted
system.cpu.branchPred.indirectHits              35686                       # Number of indirect target hits.
system.cpu.branchPred.indirectLookups           43678                       # Number of indirect predictor lookups.
system.cpu.branchPred.indirectMisses             7992                       # Number of indirect misses.
system.cpu.branchPred.lookups                  412017                       # Number of BP lookups
system.cpu.branchPred.usedRAS                   71461                       # Number of times the RAS was used to get a target.
system.cpu.branchPredindirectMispredicted         4711                       # Number of mispredicted indirect branches.
system.cpu.committedInsts                     2288849                       # Number of instructions committed
system.cpu.committedOps                       2592921                       # Number of ops (including micro ops) committed
system.cpu.cpi                               4.156711                       # CPI: cycles per instruction
system.cpu.discardedOps                         53310                       # Number of ops (including micro ops) which were discarded before commit
system.cpu.dtb.accesses                             0                       # DTB accesses
system.cpu.dtb.align_faults                         0                       # Number of TLB faults due to alignment restrictions
system.cpu.dtb.domain_faults                        0                       # Number of TLB faults due to domain restrictions
system.cpu.dtb.flush_entries                        0                       # Number of entries that have been flushed from TLB
system.cpu.dtb.flush_tlb                            0                       # Number of times complete TLB was flushed
system.cpu.dtb.flush_tlb_asid                       0                       # Number of times TLB was flushed by ASID
system.cpu.dtb.flush_tlb_mva                        0                       # Number of times TLB was flushed by MVA
system.cpu.dtb.flush_tlb_mva_asid                   0                       # Number of times TLB was flushed by MVA & ASID
system.cpu.dtb.hits                                 0                       # DTB hits
system.cpu.dtb.inst_accesses                        0                       # ITB inst accesses
system.cpu.dtb.inst_hits                            0                       # ITB inst hits
system.cpu.dtb.inst_misses                          0                       # ITB inst misses
system.cpu.dtb.misses                               0                       # DTB misses
system.cpu.dtb.perms_faults                         0                       # Number of TLB faults due to permissions restrictions
system.cpu.dtb.prefetch_faults                      0                       # Number of TLB faults due to prefetch
system.cpu.dtb.read_accesses                        0                       # DTB read accesses
system.cpu.dtb.read_hits                            0                       # DTB read hits
system.cpu.dtb.read_misses                          0                       # DTB read misses
system.cpu.dtb.stage2_mmu.stage2_tlb.accesses            0                       # DTB accesses
system.cpu.dtb.stage2_mmu.stage2_tlb.align_faults            0                       # Number of TLB faults due to alignment restrictions
system.cpu.dtb.stage2_mmu.stage2_tlb.domain_faults            0                       # Number of TLB faults due to domain restrictions
system.cpu.dtb.stage2_mmu.stage2_tlb.flush_entries            0                       # Number of entries that have been flushed from TLB
system.cpu.dtb.stage2_mmu.stage2_tlb.flush_tlb            0                       # Number of times complete TLB was flushed
system.cpu.dtb.stage2_mmu.stage2_tlb.flush_tlb_asid            0                       # Number of times TLB was flushed by ASID
system.cpu.dtb.stage2_mmu.stage2_tlb.flush_tlb_mva            0                       # Number of times TLB was flushed by MVA
system.cpu.dtb.stage2_mmu.stage2_tlb.flush_tlb_mva_asid            0                       # Number of times TLB was flushed by MVA & ASID
system.cpu.dtb.stage2_mmu.stage2_tlb.hits            0                       # DTB hits
system.cpu.dtb.stage2_mmu.stage2_tlb.inst_accesses            0                       # ITB inst accesses
system.cpu.dtb.stage2_mmu.stage2_tlb.inst_hits            0                       # ITB inst hits
system.cpu.dtb.stage2_mmu.stage2_tlb.inst_misses            0                       # ITB inst misses
system.cpu.dtb.stage2_mmu.stage2_tlb.misses            0                       # DTB misses
system.cpu.dtb.stage2_mmu.stage2_tlb.perms_faults            0                       # Number of TLB faults due to permissions restrictions
system.cpu.dtb.stage2_mmu.stage2_tlb.prefetch_faults            0                       # Number of TLB faults due to prefetch
system.cpu.dtb.stage2_mmu.stage2_tlb.read_accesses            0                       # DTB read accesses
system.cpu.dtb.stage2_mmu.stage2_tlb.read_hits            0                       # DTB read hits
system.cpu.dtb.stage2_mmu.stage2_tlb.read_misses            0                       # DTB read misses
system.cpu.dtb.stage2_mmu.stage2_tlb.walker.walkRequestOrigin_Requested::Data            0                       # Table walker requests started/completed, data/inst
system.cpu.dtb.stage2_mmu.stage2_tlb.walker.walkRequestOrigin_Requested::Inst            0                       # Table walker requests started/completed, data/inst
system.cpu.dtb.stage2_mmu.stage2_tlb.walker.walkRequestOrigin_Requested::total            0                       # Table walker requests started/completed, data/inst
system.cpu.dtb.stage2_mmu.stage2_tlb.walker.walkRequestOrigin_Completed::Data            0                       # Table walker requests started/completed, data/inst
system.cpu.dtb.stage2_mmu.stage2_tlb.walker.walkRequestOrigin_Completed::Inst            0                       # Table walker requests started/completed, data/inst
system.cpu.dtb.stage2_mmu.stage2_tlb.walker.walkRequestOrigin_Completed::total            0                       # Table walker requests started/completed, data/inst
system.cpu.dtb.stage2_mmu.stage2_tlb.walker.walkRequestOrigin::total            0                       # Table walker requests started/completed, data/inst
system.cpu.dtb.stage2_mmu.stage2_tlb.walker.walks            0                       # Table walker walks requested
system.cpu.dtb.stage2_mmu.stage2_tlb.write_accesses            0                       # DTB write accesses
system.cpu.dtb.stage2_mmu.stage2_tlb.write_hits            0                       # DTB write hits
system.cpu.dtb.stage2_mmu.stage2_tlb.write_misses            0                       # DTB write misses
system.cpu.dtb.walker.walkRequestOrigin_Requested::Data            0                       # Table walker requests started/completed, data/inst
system.cpu.dtb.walker.walkRequestOrigin_Requested::Inst            0                       # Table walker requests started/completed, data/inst
system.cpu.dtb.walker.walkRequestOrigin_Requested::total            0                       # Table walker requests started/completed, data/inst
system.cpu.dtb.walker.walkRequestOrigin_Completed::Data            0                       # Table walker requests started/completed, data/inst
system.cpu.dtb.walker.walkRequestOrigin_Completed::Inst            0                       # Table walker requests started/completed, data/inst
system.cpu.dtb.walker.walkRequestOrigin_Completed::total            0                       # Table walker requests started/completed, data/inst
system.cpu.dtb.walker.walkRequestOrigin::total            0                       # Table walker requests started/completed, data/inst
system.cpu.dtb.walker.walks                         0                       # Table walker walks requested
system.cpu.dtb.write_accesses                       0                       # DTB write accesses
system.cpu.dtb.write_hits                           0                       # DTB write hits
system.cpu.dtb.write_misses                         0                       # DTB write misses
system.cpu.fetch2.amo_instructions                  0                       # Number of memory atomic instructions successfully decoded
system.cpu.fetch2.fp_instructions                   0                       # Number of floating point instructions successfully decoded
system.cpu.fetch2.int_instructions            1227986                       # Number of integer instructions successfully decoded
system.cpu.fetch2.load_instructions            631779                       # Number of memory load instructions successfully decoded
system.cpu.fetch2.store_instructions           294117                       # Number of memory store instructions successfully decoded
system.cpu.fetch2.vec_instructions                  0                       # Number of SIMD instructions successfully decoded
system.cpu.idleCycles                         6260107                       # Total number of cycles that the object has spent stopped
system.cpu.ipc                               0.240575                       # IPC: instructions per cycle
system.cpu.itb.accesses                             0                       # DTB accesses
system.cpu.itb.align_faults                         0                       # Number of TLB faults due to alignment restrictions
system.cpu.itb.domain_faults                        0                       # Number of TLB faults due to domain restrictions
system.cpu.itb.flush_entries                        0                       # Number of entries that have been flushed from TLB
system.cpu.itb.flush_tlb                            0                       # Number of times complete TLB was flushed
system.cpu.itb.flush_tlb_asid                       0                       # Number of times TLB was flushed by ASID
system.cpu.itb.flush_tlb_mva                        0                       # Number of times TLB was flushed by MVA
system.cpu.itb.flush_tlb_mva_asid                   0                       # Number of times TLB was flushed by MVA & ASID
system.cpu.itb.hits                                 0                       # DTB hits
system.cpu.itb.inst_accesses                        0                       # ITB inst accesses
system.cpu.itb.inst_hits                            0                       # ITB inst hits
system.cpu.itb.inst_misses                          0                       # ITB inst misses
system.cpu.itb.misses                               0                       # DTB misses
system.cpu.itb.perms_faults                         0                       # Number of TLB faults due to permissions restrictions
system.cpu.itb.prefetch_faults                      0                       # Number of TLB faults due to prefetch
system.cpu.itb.read_accesses                        0                       # DTB read accesses
system.cpu.itb.read_hits                            0                       # DTB read hits
system.cpu.itb.read_misses                          0                       # DTB read misses
system.cpu.itb.stage2_mmu.stage2_tlb.accesses            0                       # DTB accesses
system.cpu.itb.stage2_mmu.stage2_tlb.align_faults            0                       # Number of TLB faults due to alignment restrictions
system.cpu.itb.stage2_mmu.stage2_tlb.domain_faults            0                       # Number of TLB faults due to domain restrictions
system.cpu.itb.stage2_mmu.stage2_tlb.flush_entries            0                       # Number of entries that have been flushed from TLB
system.cpu.itb.stage2_mmu.stage2_tlb.flush_tlb            0                       # Number of times complete TLB was flushed
system.cpu.itb.stage2_mmu.stage2_tlb.flush_tlb_asid            0                       # Number of times TLB was flushed by ASID
system.cpu.itb.stage2_mmu.stage2_tlb.flush_tlb_mva            0                       # Number of times TLB was flushed by MVA
system.cpu.itb.stage2_mmu.stage2_tlb.flush_tlb_mva_asid            0                       # Number of times TLB was flushed by MVA & ASID
system.cpu.itb.stage2_mmu.stage2_tlb.hits            0                       # DTB hits
system.cpu.itb.stage2_mmu.stage2_tlb.inst_accesses            0                       # ITB inst accesses
system.cpu.itb.stage2_mmu.stage2_tlb.inst_hits            0                       # ITB inst hits
system.cpu.itb.stage2_mmu.stage2_tlb.inst_misses            0                       # ITB inst misses
system.cpu.itb.stage2_mmu.stage2_tlb.misses            0                       # DTB misses
system.cpu.itb.stage2_mmu.stage2_tlb.perms_faults            0                       # Number of TLB faults due to permissions restrictions
system.cpu.itb.stage2_mmu.stage2_tlb.prefetch_faults            0                       # Number of TLB faults due to prefetch
system.cpu.itb.stage2_mmu.stage2_tlb.read_accesses            0                       # DTB read accesses
system.cpu.itb.stage2_mmu.stage2_tlb.read_hits            0                       # DTB read hits
system.cpu.itb.stage2_mmu.stage2_tlb.read_misses            0                       # DTB read misses
system.cpu.itb.stage2_mmu.stage2_tlb.walker.walkRequestOrigin_Requested::Data            0                       # Table walker requests started/completed, data/inst
system.cpu.itb.stage2_mmu.stage2_tlb.walker.walkRequestOrigin_Requested::Inst            0                       # Table walker requests started/completed, data/inst
system.cpu.itb.stage2_mmu.stage2_tlb.walker.walkRequestOrigin_Requested::total            0                       # Table walker requests started/completed, data/inst
system.cpu.itb.stage2_mmu.stage2_tlb.walker.walkRequestOrigin_Completed::Data            0                       # Table walker requests started/completed, data/inst
system.cpu.itb.stage2_mmu.stage2_tlb.walker.walkRequestOrigin_Completed::Inst            0                       # Table walker requests started/completed, data/inst
system.cpu.itb.stage2_mmu.stage2_tlb.walker.walkRequestOrigin_Completed::total            0                       # Table walker requests started/completed, data/inst
system.cpu.itb.stage2_mmu.stage2_tlb.walker.walkRequestOrigin::total            0                       # Table walker requests started/completed, data/inst
system.cpu.itb.stage2_mmu.stage2_tlb.walker.walks            0                       # Table walker walks requested
system.cpu.itb.stage2_mmu.stage2_tlb.write_accesses            0                       # DTB write accesses
system.cpu.itb.stage2_mmu.stage2_tlb.write_hits            0                       # DTB write hits
system.cpu.itb.stage2_mmu.stage2_tlb.write_misses            0                       # DTB write misses
system.cpu.itb.walker.walkRequestOrigin_Requested::Data            0                       # Table walker requests started/completed, data/inst
system.cpu.itb.walker.walkRequestOrigin_Requested::Inst            0                       # Table walker requests started/completed, data/inst
system.cpu.itb.walker.walkRequestOrigin_Requested::total            0                       # Table walker requests started/completed, data/inst
system.cpu.itb.walker.walkRequestOrigin_Completed::Data            0                       # Table walker requests started/completed, data/inst
system.cpu.itb.walker.walkRequestOrigin_Completed::Inst            0                       # Table walker requests started/completed, data/inst
system.cpu.itb.walker.walkRequestOrigin_Completed::total            0                       # Table walker requests started/completed, data/inst
system.cpu.itb.walker.walkRequestOrigin::total            0                       # Table walker requests started/completed, data/inst
system.cpu.itb.walker.walks                         0                       # Table walker walks requested
system.cpu.itb.write_accesses                       0                       # DTB write accesses
system.cpu.itb.write_hits                           0                       # DTB write hits
system.cpu.itb.write_misses                         0                       # DTB write misses
system.cpu.kern.inst.arm                            0                       # number of arm instructions executed
system.cpu.kern.inst.quiesce                     3651                       # number of quiesce instructions executed
system.cpu.numCycles                          9514084                       # number of cpu cycles simulated
system.cpu.numFetchSuspends                      3651                       # Number of times Execute suspended instruction fetching
system.cpu.numWorkItemsCompleted                    0                       # number of work items this cpu completed
system.cpu.numWorkItemsStarted                      0                       # number of work items this cpu started
system.cpu.op_class_0::No_OpClass                   0      0.00%      0.00% # Class of committed instruction
system.cpu.op_class_0::IntAlu                 1438118     55.46%     55.46% # Class of committed instruction
system.cpu.op_class_0::IntMult                   8250      0.32%     55.78% # Class of committed instruction
system.cpu.op_class_0::IntDiv                       0      0.00%     55.78% # Class of committed instruction
system.cpu.op_class_0::FloatAdd                     0      0.00%     55.78% # Class of committed instruction
system.cpu.op_class_0::FloatCmp                     0      0.00%     55.78% # Class of committed instruction
system.cpu.op_class_0::FloatCvt                     0      0.00%     55.78% # Class of committed instruction
system.cpu.op_class_0::FloatMult                    0      0.00%     55.78% # Class of committed instruction
system.cpu.op_class_0::FloatMultAcc                 0      0.00%     55.78% # Class of committed instruction
system.cpu.op_class_0::FloatDiv                     0      0.00%     55.78% # Class of committed instruction
system.cpu.op_class_0::FloatMisc                    0      0.00%     55.78% # Class of committed instruction
system.cpu.op_class_0::FloatSqrt                    0      0.00%     55.78% # Class of committed instruction
system.cpu.op_class_0::SimdAdd                      0      0.00%     55.78% # Class of committed instruction
system.cpu.op_class_0::SimdAddAcc                   0      0.00%     55.78% # Class of committed instruction
system.cpu.op_class_0::SimdAlu                      0      0.00%     55.78% # Class of committed instruction
system.cpu.op_class_0::SimdCmp                      0      0.00%     55.78% # Class of committed instruction
system.cpu.op_class_0::SimdCvt                      0      0.00%     55.78% # Class of committed instruction
system.cpu.op_class_0::SimdMisc                     0      0.00%     55.78% # Class of committed instruction
system.cpu.op_class_0::SimdMult                     0      0.00%     55.78% # Class of committed instruction
system.cpu.op_class_0::SimdMultAcc                  0      0.00%     55.78% # Class of committed instruction
system.cpu.op_class_0::SimdShift                    0      0.00%     55.78% # Class of committed instruction
system.cpu.op_class_0::SimdShiftAcc                 0      0.00%     55.78% # Class of committed instruction
system.cpu.op_class_0::SimdDiv                      0      0.00%     55.78% # Class of committed instruction
system.cpu.op_class_0::SimdSqrt                     0      0.00%     55.78% # Class of committed instruction
system.cpu.op_class_0::SimdFloatAdd                 0      0.00%     55.78% # Class of committed instruction
system.cpu.op_class_0::SimdFloatAlu                 0      0.00%     55.78% # Class of committed instruction
system.cpu.op_class_0::SimdFloatCmp                 0      0.00%     55.78% # Class of committed instruction
system.cpu.op_class_0::SimdFloatCvt                 0      0.00%     55.78% # Class of committed instruction
system.cpu.op_class_0::SimdFloatDiv                 0      0.00%     55.78% # Class of committed instruction
system.cpu.op_class_0::SimdFloatMisc                0      0.00%     55.78% # Class of committed instruction
system.cpu.op_class_0::SimdFloatMult                0      0.00%     55.78% # Class of committed instruction
system.cpu.op_class_0::SimdFloatMultAcc             0      0.00%     55.78% # Class of committed instruction
system.cpu.op_class_0::SimdFloatSqrt                0      0.00%     55.78% # Class of committed instruction
system.cpu.op_class_0::SimdReduceAdd                0      0.00%     55.78% # Class of committed instruction
system.cpu.op_class_0::SimdReduceAlu                0      0.00%     55.78% # Class of committed instruction
system.cpu.op_class_0::SimdReduceCmp                0      0.00%     55.78% # Class of committed instruction
system.cpu.op_class_0::SimdFloatReduceAdd            0      0.00%     55.78% # Class of committed instruction
system.cpu.op_class_0::SimdFloatReduceCmp            0      0.00%     55.78% # Class of committed instruction
system.cpu.op_class_0::SimdAes                      0      0.00%     55.78% # Class of committed instruction
system.cpu.op_class_0::SimdAesMix                   0      0.00%     55.78% # Class of committed instruction
system.cpu.op_class_0::SimdSha1Hash                 0      0.00%     55.78% # Class of committed instruction
system.cpu.op_class_0::SimdSha1Hash2                0      0.00%     55.78% # Class of committed instruction
system.cpu.op_class_0::SimdSha256Hash               0      0.00%     55.78% # Class of committed instruction
system.cpu.op_class_0::SimdSha256Hash2              0      0.00%     55.78% # Class of committed instruction
system.cpu.op_class_0::SimdShaSigma2                0      0.00%     55.78% # Class of committed instruction
system.cpu.op_class_0::SimdShaSigma3                0      0.00%     55.78% # Class of committed instruction
system.cpu.op_class_0::SimdPredAlu                  0      0.00%     55.78% # Class of committed instruction
system.cpu.op_class_0::MemRead                 693336     26.74%     82.52% # Class of committed instruction
system.cpu.op_class_0::MemWrite                453217     17.48%    100.00% # Class of committed instruction
system.cpu.op_class_0::FloatMemRead                 0      0.00%    100.00% # Class of committed instruction
system.cpu.op_class_0::FloatMemWrite                0      0.00%    100.00% # Class of committed instruction
system.cpu.op_class_0::IprAccess                    0      0.00%    100.00% # Class of committed instruction
system.cpu.op_class_0::InstPrefetch                 0      0.00%    100.00% # Class of committed instruction
system.cpu.op_class_0::total                  2592921                       # Class of committed instruction
system.cpu.quiesceCycles                     78726008                       # Total number of cycles that CPU has spent quiesced or waiting for an interrupt
system.cpu.tickCycles                         3253977                       # Number of cycles that the object actually ticked
system.membus.snoop_filter.hit_multi_requests           18                       # Number of requests hitting in the snoop filter with multiple (>1) holders of the requested data.
system.membus.snoop_filter.hit_multi_snoops            0                       # Number of snoops hitting in the snoop filter with multiple (>1) holders of the requested data.
system.membus.snoop_filter.hit_single_requests         4885                       # Number of requests hitting in the snoop filter with a single holder of the requested data.
system.membus.snoop_filter.hit_single_snoops            0                       # Number of snoops hitting in the snoop filter with a single holder of the requested data.
system.membus.snoop_filter.tot_requests          9904                       # Total number of requests made to the snoop filter.
system.membus.snoop_filter.tot_snoops               0                       # Total number of snoops made to the snoop filter.
system.bridge.pwrStateResidencyTicks::UNDEFINED 104242652500                       # Cumulative time (in ticks) in various power states
system.voltage_domain.voltage                       1                       # Voltage in Volts
system.iocache.pwrStateResidencyTicks::UNDEFINED 104242652500                       # Cumulative time (in ticks) in various power states
system.iocache.blocked_cycles::no_mshrs             0                       # number of cycles access was blocked
system.iocache.blocked_cycles::no_targets            0                       # number of cycles access was blocked
system.iocache.blocked::no_mshrs                    0                       # number of cycles access was blocked
system.iocache.blocked::no_targets                  0                       # number of cycles access was blocked
system.iocache.avg_blocked_cycles::no_mshrs          nan                       # average number of cycles each access was blocked
system.iocache.avg_blocked_cycles::no_targets          nan                       # average number of cycles each access was blocked
system.iocache.replacements                         0                       # number of replacements
system.iocache.tags.pwrStateResidencyTicks::UNDEFINED 104242652500                       # Cumulative time (in ticks) in various power states
system.iocache.tags.tagsinuse                       0                       # Cycle average of tags in use
system.iocache.tags.total_refs                      0                       # Total number of references to valid blocks.
system.iocache.tags.sampled_refs                    0                       # Sample count of references to valid blocks.
system.iocache.tags.avg_refs                      nan                       # Average number of references to valid blocks.
system.iocache.tags.warmup_cycle                    0                       # Cycle when the warmup percentage was hit.
system.iocache.tags.tag_accesses                    0                       # Number of tag accesses
system.iocache.tags.data_accesses                   0                       # Number of data accesses
system.membus.pwrStateResidencyTicks::UNDEFINED 104242652500                       # Cumulative time (in ticks) in various power states
system.membus.trans_dist::ReadReq             1596962                       # Transaction distribution
system.membus.trans_dist::ReadResp            1600567                       # Transaction distribution
system.membus.trans_dist::WriteReq             817744                       # Transaction distribution
system.membus.trans_dist::WriteResp            817744                       # Transaction distribution
system.membus.trans_dist::WritebackDirty         2977                       # Transaction distribution
system.membus.trans_dist::CleanEvict             1886                       # Transaction distribution
system.membus.trans_dist::ReadExReq              1423                       # Transaction distribution
system.membus.trans_dist::ReadExResp             1424                       # Transaction distribution
system.membus.trans_dist::ReadCleanReq            245                       # Transaction distribution
system.membus.trans_dist::ReadSharedReq          3368                       # Transaction distribution
system.membus.pkt_count_system.cpu.icache.mem_side::system.realview.bootmem.port          561                       # Packet count per connected master and slave (bytes)
system.membus.pkt_count_system.cpu.icache.mem_side::total          561                       # Packet count per connected master and slave (bytes)
system.membus.pkt_count_system.cpu.dcache.mem_side::system.realview.bootmem.port          101                       # Packet count per connected master and slave (bytes)
system.membus.pkt_count_system.cpu.dcache.mem_side::system.realview.gic.pio        14790                       # Packet count per connected master and slave (bytes)
system.membus.pkt_count_system.cpu.dcache.mem_side::system.mem_ctrls.port        14274                       # Packet count per connected master and slave (bytes)
system.membus.pkt_count_system.cpu.dcache.mem_side::system.acctest.mem2cls.slave        59326                       # Packet count per connected master and slave (bytes)
system.membus.pkt_count_system.cpu.dcache.mem_side::total        88491                       # Packet count per connected master and slave (bytes)
system.membus.pkt_count_system.acctest.coherency_bus.master[0]::system.mem_ctrls.port      4755288                       # Packet count per connected master and slave (bytes)
system.membus.pkt_count_system.acctest.coherency_bus.master[0]::total      4755288                       # Packet count per connected master and slave (bytes)
system.membus.pkt_count::total                4844340                       # Packet count per connected master and slave (bytes)
system.membus.pkt_size_system.cpu.icache.mem_side::system.realview.bootmem.port        15680                       # Cumulative packet size per connected master and slave (bytes)
system.membus.pkt_size_system.cpu.icache.mem_side::total        15680                       # Cumulative packet size per connected master and slave (bytes)
system.membus.pkt_size_system.cpu.dcache.mem_side::system.realview.bootmem.port         2624                       # Cumulative packet size per connected master and slave (bytes)
system.membus.pkt_size_system.cpu.dcache.mem_side::system.realview.gic.pio        29580                       # Cumulative packet size per connected master and slave (bytes)
system.membus.pkt_size_system.cpu.dcache.mem_side::system.mem_ctrls.port       494592                       # Cumulative packet size per connected master and slave (bytes)
system.membus.pkt_size_system.cpu.dcache.mem_side::system.acctest.mem2cls.slave        81503                       # Cumulative packet size per connected master and slave (bytes)
system.membus.pkt_size_system.cpu.dcache.mem_side::total       608299                       # Cumulative packet size per connected master and slave (bytes)
system.membus.pkt_size_system.acctest.coherency_bus.master[0]::system.mem_ctrls.port    152167940                       # Cumulative packet size per connected master and slave (bytes)
system.membus.pkt_size_system.acctest.coherency_bus.master[0]::total    152167940                       # Cumulative packet size per connected master and slave (bytes)
system.membus.pkt_size::total               152791919                       # Cumulative packet size per connected master and slave (bytes)
system.membus.snoops                                0                       # Total snoops (count)
system.membus.snoopTraffic                          0                       # Total snoop traffic (bytes)
system.membus.snoop_fanout::samples           2422377                       # Request fanout histogram
system.membus.snoop_fanout::mean             0.000017                       # Request fanout histogram
system.membus.snoop_fanout::stdev            0.004064                       # Request fanout histogram
system.membus.snoop_fanout::underflows              0      0.00%      0.00% # Request fanout histogram
system.membus.snoop_fanout::0                 2422337    100.00%    100.00% # Request fanout histogram
system.membus.snoop_fanout::1                      40      0.00%    100.00% # Request fanout histogram
system.membus.snoop_fanout::2                       0      0.00%    100.00% # Request fanout histogram
system.membus.snoop_fanout::3                       0      0.00%    100.00% # Request fanout histogram
system.membus.snoop_fanout::4                       0      0.00%    100.00% # Request fanout histogram
system.membus.snoop_fanout::overflows               0      0.00%    100.00% # Request fanout histogram
system.membus.snoop_fanout::min_value               0                       # Request fanout histogram
system.membus.snoop_fanout::max_value               1                       # Request fanout histogram
system.membus.snoop_fanout::total             2422377                       # Request fanout histogram
system.membus.reqLayer6.occupancy          6158549465                       # Layer occupancy (ticks)
system.membus.reqLayer6.utilization              11.2                       # Layer utilization (%)
system.membus.reqLayer7.occupancy            75017875                       # Layer occupancy (ticks)
system.membus.reqLayer7.utilization               0.1                       # Layer utilization (%)
system.membus.reqLayer1.occupancy              579812                       # Layer occupancy (ticks)
system.membus.reqLayer1.utilization               0.0                       # Layer utilization (%)
system.membus.reqLayer2.occupancy            14453000                       # Layer occupancy (ticks)
system.membus.reqLayer2.utilization               0.0                       # Layer utilization (%)
system.membus.badaddr_responder.pwrStateResidencyTicks::UNDEFINED 104242652500                       # Cumulative time (in ticks) in various power states
system.membus.respLayer4.occupancy           68174934                       # Layer occupancy (ticks)
system.membus.respLayer4.utilization              0.1                       # Layer utilization (%)
system.membus.respLayer7.occupancy         9705234538                       # Layer occupancy (ticks)
system.membus.respLayer7.utilization             17.6                       # Layer utilization (%)
system.membus.respLayer3.occupancy            1228750                       # Layer occupancy (ticks)
system.membus.respLayer3.utilization              0.0                       # Layer utilization (%)
system.acctest.harris_non_max0_spm.pwrStateResidencyTicks::UNDEFINED 104242652500                       # Cumulative time (in ticks) in various power states
system.acctest.elem_matrix2_spm.pwrStateResidencyTicks::UNDEFINED 104242652500                       # Cumulative time (in ticks) in various power states
system.acctest.elem_matrix3_spm.pwrStateResidencyTicks::UNDEFINED 104242652500                       # Cumulative time (in ticks) in various power states
system.acctest.local_bus.pwrStateResidencyTicks::UNDEFINED 104242652500                       # Cumulative time (in ticks) in various power states
system.acctest.local_bus.trans_dist::ReadReq      1726976                       # Transaction distribution
system.acctest.local_bus.trans_dist::ReadResp      1726976                       # Transaction distribution
system.acctest.local_bus.trans_dist::WriteReq      3374380                       # Transaction distribution
system.acctest.local_bus.trans_dist::WriteResp      3374380                       # Transaction distribution
system.acctest.local_bus.pkt_count_system.acctest.mem2cls.master::system.acctest.convolution0.pio          600                       # Packet count per connected master and slave (bytes)
system.acctest.local_bus.pkt_count_system.acctest.mem2cls.master::system.acctest.convolution0_dma.pio         1134                       # Packet count per connected master and slave (bytes)
system.acctest.local_bus.pkt_count_system.acctest.mem2cls.master::system.acctest.elem_matrix0.pio        24600                       # Packet count per connected master and slave (bytes)
system.acctest.local_bus.pkt_count_system.acctest.mem2cls.master::system.acctest.elem_matrix0_dma.pio        32788                       # Packet count per connected master and slave (bytes)
system.acctest.local_bus.pkt_count_system.acctest.mem2cls.master::system.acctest.grayscale0.pio           30                       # Packet count per connected master and slave (bytes)
system.acctest.local_bus.pkt_count_system.acctest.mem2cls.master::system.acctest.grayscale0_dma.pio           84                       # Packet count per connected master and slave (bytes)
system.acctest.local_bus.pkt_count_system.acctest.mem2cls.master::system.acctest.isp0.pio           36                       # Packet count per connected master and slave (bytes)
system.acctest.local_bus.pkt_count_system.acctest.mem2cls.master::system.acctest.isp0_dma.pio           54                       # Packet count per connected master and slave (bytes)
system.acctest.local_bus.pkt_count_system.acctest.mem2cls.master::total        59326                       # Packet count per connected master and slave (bytes)
system.acctest.local_bus.pkt_count_system.acctest.convolution0_dma.dma::system.acctest.convolution0_spm.port       209136                       # Packet count per connected master and slave (bytes)
system.acctest.local_bus.pkt_count_system.acctest.convolution0_dma.dma::system.acctest.elem_matrix0_spm.port       110592                       # Packet count per connected master and slave (bytes)
system.acctest.local_bus.pkt_count_system.acctest.convolution0_dma.dma::system.acctest.grayscale0_spm.port        12288                       # Packet count per connected master and slave (bytes)
system.acctest.local_bus.pkt_count_system.acctest.convolution0_dma.dma::total       332016                       # Packet count per connected master and slave (bytes)
system.acctest.local_bus.pkt_count_system.acctest.elem_matrix0_dma.dma::system.acctest.convolution0_spm.port       122880                       # Packet count per connected master and slave (bytes)
system.acctest.local_bus.pkt_count_system.acctest.elem_matrix0_dma.dma::system.acctest.elem_matrix0_spm.port      9592832                       # Packet count per connected master and slave (bytes)
system.acctest.local_bus.pkt_count_system.acctest.elem_matrix0_dma.dma::system.acctest.grayscale0_spm.port        61440                       # Packet count per connected master and slave (bytes)
system.acctest.local_bus.pkt_count_system.acctest.elem_matrix0_dma.dma::total      9777152                       # Packet count per connected master and slave (bytes)
system.acctest.local_bus.pkt_count_system.acctest.grayscale0_dma.dma::system.acctest.grayscale0_spm.port        21504                       # Packet count per connected master and slave (bytes)
system.acctest.local_bus.pkt_count_system.acctest.grayscale0_dma.dma::system.acctest.isp0_spm.port         9216                       # Packet count per connected master and slave (bytes)
system.acctest.local_bus.pkt_count_system.acctest.grayscale0_dma.dma::total        30720                       # Packet count per connected master and slave (bytes)
system.acctest.local_bus.pkt_count_system.acctest.isp0_dma.dma::system.acctest.isp0_spm.port         3498                       # Packet count per connected master and slave (bytes)
system.acctest.local_bus.pkt_count_system.acctest.isp0_dma.dma::total         3498                       # Packet count per connected master and slave (bytes)
system.acctest.local_bus.pkt_count::total     10202712                       # Packet count per connected master and slave (bytes)
system.acctest.local_bus.pkt_size_system.acctest.mem2cls.master::system.acctest.convolution0.pio          840                       # Cumulative packet size per connected master and slave (bytes)
system.acctest.local_bus.pkt_size_system.acctest.mem2cls.master::system.acctest.convolution0_dma.pio         1782                       # Cumulative packet size per connected master and slave (bytes)
system.acctest.local_bus.pkt_size_system.acctest.mem2cls.master::system.acctest.elem_matrix0.pio        27060                       # Cumulative packet size per connected master and slave (bytes)
system.acctest.local_bus.pkt_size_system.acctest.mem2cls.master::system.acctest.elem_matrix0_dma.pio        51524                       # Cumulative packet size per connected master and slave (bytes)
system.acctest.local_bus.pkt_size_system.acctest.mem2cls.master::system.acctest.grayscale0.pio           33                       # Cumulative packet size per connected master and slave (bytes)
system.acctest.local_bus.pkt_size_system.acctest.mem2cls.master::system.acctest.grayscale0_dma.pio          132                       # Cumulative packet size per connected master and slave (bytes)
system.acctest.local_bus.pkt_size_system.acctest.mem2cls.master::system.acctest.isp0.pio           45                       # Cumulative packet size per connected master and slave (bytes)
system.acctest.local_bus.pkt_size_system.acctest.mem2cls.master::system.acctest.isp0_dma.pio           87                       # Cumulative packet size per connected master and slave (bytes)
system.acctest.local_bus.pkt_size_system.acctest.mem2cls.master::total        81503                       # Cumulative packet size per connected master and slave (bytes)
system.acctest.local_bus.pkt_size_system.acctest.convolution0_dma.dma::system.acctest.convolution0_spm.port      3345336                       # Cumulative packet size per connected master and slave (bytes)
system.acctest.local_bus.pkt_size_system.acctest.convolution0_dma.dma::system.acctest.elem_matrix0_spm.port      1769472                       # Cumulative packet size per connected master and slave (bytes)
system.acctest.local_bus.pkt_size_system.acctest.convolution0_dma.dma::system.acctest.grayscale0_spm.port       196608                       # Cumulative packet size per connected master and slave (bytes)
system.acctest.local_bus.pkt_size_system.acctest.convolution0_dma.dma::total      5311416                       # Cumulative packet size per connected master and slave (bytes)
system.acctest.local_bus.pkt_size_system.acctest.elem_matrix0_dma.dma::system.acctest.convolution0_spm.port      1966080                       # Cumulative packet size per connected master and slave (bytes)
system.acctest.local_bus.pkt_size_system.acctest.elem_matrix0_dma.dma::system.acctest.elem_matrix0_spm.port    153485312                       # Cumulative packet size per connected master and slave (bytes)
system.acctest.local_bus.pkt_size_system.acctest.elem_matrix0_dma.dma::system.acctest.grayscale0_spm.port       983040                       # Cumulative packet size per connected master and slave (bytes)
system.acctest.local_bus.pkt_size_system.acctest.elem_matrix0_dma.dma::total    156434432                       # Cumulative packet size per connected master and slave (bytes)
system.acctest.local_bus.pkt_size_system.acctest.grayscale0_dma.dma::system.acctest.grayscale0_spm.port       344064                       # Cumulative packet size per connected master and slave (bytes)
system.acctest.local_bus.pkt_size_system.acctest.grayscale0_dma.dma::system.acctest.isp0_spm.port       147456                       # Cumulative packet size per connected master and slave (bytes)
system.acctest.local_bus.pkt_size_system.acctest.grayscale0_dma.dma::total       491520                       # Cumulative packet size per connected master and slave (bytes)
system.acctest.local_bus.pkt_size_system.acctest.isp0_dma.dma::system.acctest.isp0_spm.port        55884                       # Cumulative packet size per connected master and slave (bytes)
system.acctest.local_bus.pkt_size_system.acctest.isp0_dma.dma::total        55884                       # Cumulative packet size per connected master and slave (bytes)
system.acctest.local_bus.pkt_size::total    162374755                       # Cumulative packet size per connected master and slave (bytes)
system.acctest.local_bus.occupancy        17241690750                       # Network occupancy (ticks)
system.acctest.local_bus.utilization             31.3                       # Network utilization (%)
system.acctest.local_bus.numRequests         11173969                       # Number of requests
system.acctest.local_bus.averageQueuingDelay          741                       # Average queuing delay (ticks)
system.acctest.local_bus.tailQueuingDelay        10000                       # Tail queuing delay (ticks)
system.acctest.local_bus.averageQueueLength         0.15                       # Average queue length
system.acctest.local_bus.maxQueueLength             7                       # Max queue length
system.acctest.local_bus.reqLayer0.occupancy  14033453924                       # Layer occupancy (ticks)
system.acctest.local_bus.reqLayer0.utilization         25.4                       # Layer utilization (%)
system.acctest.local_bus.respLayer0.occupancy   8557612000                       # Layer occupancy (ticks)
system.acctest.local_bus.respLayer0.utilization         15.5                       # Layer utilization (%)
system.acctest.isp0.pwrStateResidencyTicks::UNDEFINED 104242652500                       # Cumulative time (in ticks) in various power states
system.acctest.edge_tracking0.pwrStateResidencyTicks::UNDEFINED 104242652500                       # Cumulative time (in ticks) in various power states
system.acctest.grayscale0_spm.pwrStateResidencyTicks::UNDEFINED 104242652500                       # Cumulative time (in ticks) in various power states
system.acctest.grayscale0_spm.bytes_read::.acctest.convolution0_dma       196608                       # Number of bytes read from this memory
system.acctest.grayscale0_spm.bytes_read::.acctest.elem_matrix0_dma       983040                       # Number of bytes read from this memory
system.acctest.grayscale0_spm.bytes_read::.acctest.grayscale0.system.acctest.grayscale0       147456                       # Number of bytes read from this memory
system.acctest.grayscale0_spm.bytes_read::.acctest.grayscale0_dma       196608                       # Number of bytes read from this memory
system.acctest.grayscale0_spm.bytes_read::total      1523712                       # Number of bytes read from this memory
system.acctest.grayscale0_spm.bytes_written::.acctest.grayscale0.system.acctest.grayscale0       196608                       # Number of bytes written to this memory
system.acctest.grayscale0_spm.bytes_written::.acctest.grayscale0_dma       147456                       # Number of bytes written to this memory
system.acctest.grayscale0_spm.bytes_written::total       344064                       # Number of bytes written to this memory
system.acctest.grayscale0_spm.num_reads::.acctest.convolution0_dma         6144                       # Number of read requests responded to by this memory
system.acctest.grayscale0_spm.num_reads::.acctest.elem_matrix0_dma        30720                       # Number of read requests responded to by this memory
system.acctest.grayscale0_spm.num_reads::.acctest.grayscale0.system.acctest.grayscale0       147456                       # Number of read requests responded to by this memory
system.acctest.grayscale0_spm.num_reads::.acctest.grayscale0_dma         6144                       # Number of read requests responded to by this memory
system.acctest.grayscale0_spm.num_reads::total       190464                       # Number of read requests responded to by this memory
system.acctest.grayscale0_spm.num_writes::.acctest.grayscale0.system.acctest.grayscale0        49152                       # Number of write requests responded to by this memory
system.acctest.grayscale0_spm.num_writes::.acctest.grayscale0_dma         4608                       # Number of write requests responded to by this memory
system.acctest.grayscale0_spm.num_writes::total        53760                       # Number of write requests responded to by this memory
system.acctest.grayscale0_spm.bw_read::.acctest.convolution0_dma      3564965                       # Total read bandwidth from this memory (bytes/s)
system.acctest.grayscale0_spm.bw_read::.acctest.elem_matrix0_dma     17824823                       # Total read bandwidth from this memory (bytes/s)
system.acctest.grayscale0_spm.bw_read::.acctest.grayscale0.system.acctest.grayscale0      2673723                       # Total read bandwidth from this memory (bytes/s)
system.acctest.grayscale0_spm.bw_read::.acctest.grayscale0_dma      3564965                       # Total read bandwidth from this memory (bytes/s)
system.acctest.grayscale0_spm.bw_read::total     27628475                       # Total read bandwidth from this memory (bytes/s)
system.acctest.grayscale0_spm.bw_write::.acctest.grayscale0.system.acctest.grayscale0      3564965                       # Write bandwidth from this memory (bytes/s)
system.acctest.grayscale0_spm.bw_write::.acctest.grayscale0_dma      2673723                       # Write bandwidth from this memory (bytes/s)
system.acctest.grayscale0_spm.bw_write::total      6238688                       # Write bandwidth from this memory (bytes/s)
system.acctest.grayscale0_spm.bw_total::.acctest.convolution0_dma      3564965                       # Total bandwidth to/from this memory (bytes/s)
system.acctest.grayscale0_spm.bw_total::.acctest.elem_matrix0_dma     17824823                       # Total bandwidth to/from this memory (bytes/s)
system.acctest.grayscale0_spm.bw_total::.acctest.grayscale0.system.acctest.grayscale0      6238688                       # Total bandwidth to/from this memory (bytes/s)
system.acctest.grayscale0_spm.bw_total::.acctest.grayscale0_dma      6238688                       # Total bandwidth to/from this memory (bytes/s)
system.acctest.grayscale0_spm.bw_total::total     33867163                       # Total bandwidth to/from this memory (bytes/s)
system.acctest.elem_matrix1_dma.pwrStateResidencyTicks::UNDEFINED 104242652500                       # Cumulative time (in ticks) in various power states
system.acctest.mem2cls.pwrStateResidencyTicks::UNDEFINED 104242652500                       # Cumulative time (in ticks) in various power states
system.acctest.isp0_dma.pwrStateResidencyTicks::UNDEFINED 104242652500                       # Cumulative time (in ticks) in various power states
system.acctest.grayscale0_dma.pwrStateResidencyTicks::UNDEFINED 104242652500                       # Cumulative time (in ticks) in various power states
system.acctest.convolution0.pwrStateResidencyTicks::UNDEFINED 104242652500                       # Cumulative time (in ticks) in various power states
system.acctest.convolution1.pwrStateResidencyTicks::UNDEFINED 104242652500                       # Cumulative time (in ticks) in various power states
system.acctest.isp0_spm.pwrStateResidencyTicks::UNDEFINED 104242652500                       # Cumulative time (in ticks) in various power states
system.acctest.isp0_spm.bytes_read::.acctest.grayscale0_dma       147456                       # Number of bytes read from this memory
system.acctest.isp0_spm.bytes_read::.acctest.isp0.system.acctest.isp0       344064                       # Number of bytes read from this memory
system.acctest.isp0_spm.bytes_read::total       491520                       # Number of bytes read from this memory
system.acctest.isp0_spm.bytes_written::.acctest.isp0.system.acctest.isp0       147456                       # Number of bytes written to this memory
system.acctest.isp0_spm.bytes_written::.acctest.isp0_dma        55884                       # Number of bytes written to this memory
system.acctest.isp0_spm.bytes_written::total       203340                       # Number of bytes written to this memory
system.acctest.isp0_spm.num_reads::.acctest.grayscale0_dma         4608                       # Number of read requests responded to by this memory
system.acctest.isp0_spm.num_reads::.acctest.isp0.system.acctest.isp0       344064                       # Number of read requests responded to by this memory
system.acctest.isp0_spm.num_reads::total       348672                       # Number of read requests responded to by this memory
system.acctest.isp0_spm.num_writes::.acctest.isp0.system.acctest.isp0       147456                       # Number of write requests responded to by this memory
system.acctest.isp0_spm.num_writes::.acctest.isp0_dma         1749                       # Number of write requests responded to by this memory
system.acctest.isp0_spm.num_writes::total       149205                       # Number of write requests responded to by this memory
system.acctest.isp0_spm.bw_read::.acctest.grayscale0_dma      2673723                       # Total read bandwidth from this memory (bytes/s)
system.acctest.isp0_spm.bw_read::.acctest.isp0.system.acctest.isp0      6238688                       # Total read bandwidth from this memory (bytes/s)
system.acctest.isp0_spm.bw_read::total        8912411                       # Total read bandwidth from this memory (bytes/s)
system.acctest.isp0_spm.bw_write::.acctest.isp0.system.acctest.isp0      2673723                       # Write bandwidth from this memory (bytes/s)
system.acctest.isp0_spm.bw_write::.acctest.isp0_dma      1013308                       # Write bandwidth from this memory (bytes/s)
system.acctest.isp0_spm.bw_write::total       3687032                       # Write bandwidth from this memory (bytes/s)
system.acctest.isp0_spm.bw_total::.acctest.grayscale0_dma      2673723                       # Total bandwidth to/from this memory (bytes/s)
system.acctest.isp0_spm.bw_total::.acctest.isp0.system.acctest.isp0      8912411                       # Total bandwidth to/from this memory (bytes/s)
system.acctest.isp0_spm.bw_total::.acctest.isp0_dma      1013308                       # Total bandwidth to/from this memory (bytes/s)
system.acctest.isp0_spm.bw_total::total      12599443                       # Total bandwidth to/from this memory (bytes/s)
system.acctest.coherency_bus.pwrStateResidencyTicks::UNDEFINED 104242652500                       # Cumulative time (in ticks) in various power states
system.acctest.coherency_bus.trans_dist::ReadReq      1593264                       # Transaction distribution
system.acctest.coherency_bus.trans_dist::ReadResp      1593256                       # Transaction distribution
system.acctest.coherency_bus.trans_dist::WriteReq       784384                       # Transaction distribution
system.acctest.coherency_bus.trans_dist::WriteResp       784384                       # Transaction distribution
system.acctest.coherency_bus.pkt_count_system.acctest.convolution0_dma.dma::system.membus.slave[7]        43128                       # Packet count per connected master and slave (bytes)
system.acctest.coherency_bus.pkt_count_system.acctest.elem_matrix0_dma.dma::system.membus.slave[7]      4704256                       # Packet count per connected master and slave (bytes)
system.acctest.coherency_bus.pkt_count_system.acctest.grayscale0_dma.dma::system.membus.slave[7]         6144                       # Packet count per connected master and slave (bytes)
system.acctest.coherency_bus.pkt_count_system.acctest.isp0_dma.dma::system.membus.slave[7]         1760                       # Packet count per connected master and slave (bytes)
system.acctest.coherency_bus.pkt_count::total      4755288                       # Packet count per connected master and slave (bytes)
system.acctest.coherency_bus.pkt_size_system.acctest.convolution0_dma.dma::system.membus.slave[7]      1379256                       # Cumulative packet size per connected master and slave (bytes)
system.acctest.coherency_bus.pkt_size_system.acctest.elem_matrix0_dma.dma::system.membus.slave[7]    150536192                       # Cumulative packet size per connected master and slave (bytes)
system.acctest.coherency_bus.pkt_size_system.acctest.grayscale0_dma.dma::system.membus.slave[7]       196608                       # Cumulative packet size per connected master and slave (bytes)
system.acctest.coherency_bus.pkt_size_system.acctest.isp0_dma.dma::system.membus.slave[7]        55884                       # Cumulative packet size per connected master and slave (bytes)
system.acctest.coherency_bus.pkt_size::total    152167940                       # Cumulative packet size per connected master and slave (bytes)
system.acctest.coherency_bus.snoops                 0                       # Total snoops (count)
system.acctest.coherency_bus.snoopTraffic            0                       # Total snoop traffic (bytes)
system.acctest.coherency_bus.snoop_fanout::samples      2899921                       # Request fanout histogram
system.acctest.coherency_bus.snoop_fanout::mean            0                       # Request fanout histogram
system.acctest.coherency_bus.snoop_fanout::stdev            0                       # Request fanout histogram
system.acctest.coherency_bus.snoop_fanout::underflows            0      0.00%      0.00% # Request fanout histogram
system.acctest.coherency_bus.snoop_fanout::0      2899921    100.00%    100.00% # Request fanout histogram
system.acctest.coherency_bus.snoop_fanout::overflows            0      0.00%    100.00% # Request fanout histogram
system.acctest.coherency_bus.snoop_fanout::min_value            0                       # Request fanout histogram
system.acctest.coherency_bus.snoop_fanout::max_value            0                       # Request fanout histogram
system.acctest.coherency_bus.snoop_fanout::total      2899921                       # Request fanout histogram
system.acctest.coherency_bus.reqLayer0.occupancy   6652468215                       # Layer occupancy (ticks)
system.acctest.coherency_bus.reqLayer0.utilization         12.1                       # Layer utilization (%)
system.acctest.coherency_bus.respLayer0.occupancy   8750625000                       # Layer occupancy (ticks)
system.acctest.coherency_bus.respLayer0.utilization         15.9                       # Layer utilization (%)
system.acctest.convolution0_spm.pwrStateResidencyTicks::UNDEFINED 104242652500                       # Cumulative time (in ticks) in various power states
system.acctest.convolution0_spm.bytes_read::.acctest.convolution0.system.acctest.convolution0     96469440                       # Number of bytes read from this memory
system.acctest.convolution0_spm.bytes_read::.acctest.convolution0_dma      1376256                       # Number of bytes read from this memory
system.acctest.convolution0_spm.bytes_read::.acctest.elem_matrix0_dma      1966080                       # Number of bytes read from this memory
system.acctest.convolution0_spm.bytes_read::total     99811776                       # Number of bytes read from this memory
system.acctest.convolution0_spm.bytes_written::.acctest.convolution0.system.acctest.convolution0      1966080                       # Number of bytes written to this memory
system.acctest.convolution0_spm.bytes_written::.acctest.convolution0_dma      1969080                       # Number of bytes written to this memory
system.acctest.convolution0_spm.bytes_written::total      3935160                       # Number of bytes written to this memory
system.acctest.convolution0_spm.num_reads::.acctest.convolution0.system.acctest.convolution0     24117360                       # Number of read requests responded to by this memory
system.acctest.convolution0_spm.num_reads::.acctest.convolution0_dma        43008                       # Number of read requests responded to by this memory
system.acctest.convolution0_spm.num_reads::.acctest.elem_matrix0_dma        61440                       # Number of read requests responded to by this memory
system.acctest.convolution0_spm.num_reads::total     24221808                       # Number of read requests responded to by this memory
system.acctest.convolution0_spm.num_writes::.acctest.convolution0.system.acctest.convolution0       491520                       # Number of write requests responded to by this memory
system.acctest.convolution0_spm.num_writes::.acctest.convolution0_dma        61560                       # Number of write requests responded to by this memory
system.acctest.convolution0_spm.num_writes::total       553080                       # Number of write requests responded to by this memory
system.acctest.convolution0_spm.bw_read::.acctest.convolution0.system.acctest.convolution0   1749217397                       # Total read bandwidth from this memory (bytes/s)
system.acctest.convolution0_spm.bw_read::.acctest.convolution0_dma     24954752                       # Total read bandwidth from this memory (bytes/s)
system.acctest.convolution0_spm.bw_read::.acctest.elem_matrix0_dma     35649646                       # Total read bandwidth from this memory (bytes/s)
system.acctest.convolution0_spm.bw_read::total   1809821794                       # Total read bandwidth from this memory (bytes/s)
system.acctest.convolution0_spm.bw_write::.acctest.convolution0.system.acctest.convolution0     35649646                       # Write bandwidth from this memory (bytes/s)
system.acctest.convolution0_spm.bw_write::.acctest.convolution0_dma     35704043                       # Write bandwidth from this memory (bytes/s)
system.acctest.convolution0_spm.bw_write::total     71353688                       # Write bandwidth from this memory (bytes/s)
system.acctest.convolution0_spm.bw_total::.acctest.convolution0.system.acctest.convolution0   1784867042                       # Total bandwidth to/from this memory (bytes/s)
system.acctest.convolution0_spm.bw_total::.acctest.convolution0_dma     60658794                       # Total bandwidth to/from this memory (bytes/s)
system.acctest.convolution0_spm.bw_total::.acctest.elem_matrix0_dma     35649646                       # Total bandwidth to/from this memory (bytes/s)
system.acctest.convolution0_spm.bw_total::total   1881175482                       # Total bandwidth to/from this memory (bytes/s)
system.acctest.elem_matrix0_dma.pwrStateResidencyTicks::UNDEFINED 104242652500                       # Cumulative time (in ticks) in various power states
system.acctest.grayscale0.pwrStateResidencyTicks::UNDEFINED 104242652500                       # Cumulative time (in ticks) in various power states
system.acctest.canny_non_max0.pwrStateResidencyTicks::UNDEFINED 104242652500                       # Cumulative time (in ticks) in various power states
system.acctest.elem_matrix0_spm.pwrStateResidencyTicks::UNDEFINED 104242652500                       # Cumulative time (in ticks) in various power states
system.acctest.elem_matrix0_spm.bytes_read::.acctest.convolution0_dma      1769472                       # Number of bytes read from this memory
system.acctest.elem_matrix0_spm.bytes_read::.acctest.elem_matrix0.system.acctest.elem_matrix0    145489920                       # Number of bytes read from this memory
system.acctest.elem_matrix0_spm.bytes_read::.acctest.elem_matrix0_dma     48627712                       # Number of bytes read from this memory
system.acctest.elem_matrix0_spm.bytes_read::total    195887104                       # Number of bytes read from this memory
system.acctest.elem_matrix0_spm.bytes_written::.acctest.elem_matrix0.system.acctest.elem_matrix0     80609280                       # Number of bytes written to this memory
system.acctest.elem_matrix0_spm.bytes_written::.acctest.elem_matrix0_dma    104857600                       # Number of bytes written to this memory
system.acctest.elem_matrix0_spm.bytes_written::total    185466880                       # Number of bytes written to this memory
system.acctest.elem_matrix0_spm.num_reads::.acctest.convolution0_dma        55296                       # Number of read requests responded to by this memory
system.acctest.elem_matrix0_spm.num_reads::.acctest.elem_matrix0.system.acctest.elem_matrix0     36372480                       # Number of read requests responded to by this memory
system.acctest.elem_matrix0_spm.num_reads::.acctest.elem_matrix0_dma      1519616                       # Number of read requests responded to by this memory
system.acctest.elem_matrix0_spm.num_reads::total     37947392                       # Number of read requests responded to by this memory
system.acctest.elem_matrix0_spm.num_writes::.acctest.elem_matrix0.system.acctest.elem_matrix0     20152320                       # Number of write requests responded to by this memory
system.acctest.elem_matrix0_spm.num_writes::.acctest.elem_matrix0_dma      3276800                       # Number of write requests responded to by this memory
system.acctest.elem_matrix0_spm.num_writes::total     23429120                       # Number of write requests responded to by this memory
system.acctest.elem_matrix0_spm.bw_read::.acctest.convolution0_dma     32084681                       # Total read bandwidth from this memory (bytes/s)
system.acctest.elem_matrix0_spm.bw_read::.acctest.elem_matrix0.system.acctest.elem_matrix0   2638073768                       # Total read bandwidth from this memory (bytes/s)
system.acctest.elem_matrix0_spm.bw_read::.acctest.elem_matrix0_dma    881734566                       # Total read bandwidth from this memory (bytes/s)
system.acctest.elem_matrix0_spm.bw_read::total   3551893015                       # Total read bandwidth from this memory (bytes/s)
system.acctest.elem_matrix0_spm.bw_write::.acctest.elem_matrix0.system.acctest.elem_matrix0   1461635466                       # Write bandwidth from this memory (bytes/s)
system.acctest.elem_matrix0_spm.bw_write::.acctest.elem_matrix0_dma   1901314427                       # Write bandwidth from this memory (bytes/s)
system.acctest.elem_matrix0_spm.bw_write::total   3362949894                       # Write bandwidth from this memory (bytes/s)
system.acctest.elem_matrix0_spm.bw_total::.acctest.convolution0_dma     32084681                       # Total bandwidth to/from this memory (bytes/s)
system.acctest.elem_matrix0_spm.bw_total::.acctest.elem_matrix0.system.acctest.elem_matrix0   4099709234                       # Total bandwidth to/from this memory (bytes/s)
system.acctest.elem_matrix0_spm.bw_total::.acctest.elem_matrix0_dma   2783048993                       # Total bandwidth to/from this memory (bytes/s)
system.acctest.elem_matrix0_spm.bw_total::total   6914842908                       # Total bandwidth to/from this memory (bytes/s)
system.acctest.convolution0_dma.pwrStateResidencyTicks::UNDEFINED 104242652500                       # Cumulative time (in ticks) in various power states
system.acctest.convolution1_spm.pwrStateResidencyTicks::UNDEFINED 104242652500                       # Cumulative time (in ticks) in various power states
system.acctest.elem_matrix3_dma.pwrStateResidencyTicks::UNDEFINED 104242652500                       # Cumulative time (in ticks) in various power states
system.acctest.edge_tracking0_spm.pwrStateResidencyTicks::UNDEFINED 104242652500                       # Cumulative time (in ticks) in various power states
system.acctest.canny_non_max0_spm.pwrStateResidencyTicks::UNDEFINED 104242652500                       # Cumulative time (in ticks) in various power states
system.acctest.canny_non_max0_dma.pwrStateResidencyTicks::UNDEFINED 104242652500                       # Cumulative time (in ticks) in various power states
system.acctest.convolution1_dma.pwrStateResidencyTicks::UNDEFINED 104242652500                       # Cumulative time (in ticks) in various power states
system.acctest.elem_matrix1_spm.pwrStateResidencyTicks::UNDEFINED 104242652500                       # Cumulative time (in ticks) in various power states
system.acctest.elem_matrix2_dma.pwrStateResidencyTicks::UNDEFINED 104242652500                       # Cumulative time (in ticks) in various power states
system.acctest.harris_non_max0.pwrStateResidencyTicks::UNDEFINED 104242652500                       # Cumulative time (in ticks) in various power states
system.acctest.edge_tracking0_dma.pwrStateResidencyTicks::UNDEFINED 104242652500                       # Cumulative time (in ticks) in various power states
system.acctest.harris_non_max0_dma.pwrStateResidencyTicks::UNDEFINED 104242652500                       # Cumulative time (in ticks) in various power states
system.acctest.elem_matrix1.pwrStateResidencyTicks::UNDEFINED 104242652500                       # Cumulative time (in ticks) in various power states
system.acctest.elem_matrix0.pwrStateResidencyTicks::UNDEFINED 104242652500                       # Cumulative time (in ticks) in various power states
system.acctest.elem_matrix3.pwrStateResidencyTicks::UNDEFINED 104242652500                       # Cumulative time (in ticks) in various power states
system.acctest.elem_matrix2.pwrStateResidencyTicks::UNDEFINED 104242652500                       # Cumulative time (in ticks) in various power states
system.clk_domain.clock                          1000                       # Clock period in ticks
system.realview.hdlcd.pwrStateResidencyTicks::UNDEFINED 104242652500                       # Cumulative time (in ticks) in various power states
system.realview.realview_io.pwrStateResidencyTicks::UNDEFINED 104242652500                       # Cumulative time (in ticks) in various power states
system.realview.bootmem.pwrStateResidencyTicks::UNDEFINED 104242652500                       # Cumulative time (in ticks) in various power states
system.realview.bootmem.bytes_read::.cpu.inst        15680                       # Number of bytes read from this memory
system.realview.bootmem.bytes_read::.cpu.data         2624                       # Number of bytes read from this memory
system.realview.bootmem.bytes_read::total        18304                       # Number of bytes read from this memory
system.realview.bootmem.bytes_inst_read::.cpu.inst        15680                       # Number of instructions bytes read from this memory
system.realview.bootmem.bytes_inst_read::total        15680                       # Number of instructions bytes read from this memory
system.realview.bootmem.num_reads::.cpu.inst          245                       # Number of read requests responded to by this memory
system.realview.bootmem.num_reads::.cpu.data           41                       # Number of read requests responded to by this memory
system.realview.bootmem.num_reads::total          286                       # Number of read requests responded to by this memory
system.realview.bootmem.bw_read::.cpu.inst       284315                       # Total read bandwidth from this memory (bytes/s)
system.realview.bootmem.bw_read::.cpu.data        47579                       # Total read bandwidth from this memory (bytes/s)
system.realview.bootmem.bw_read::total         331894                       # Total read bandwidth from this memory (bytes/s)
system.realview.bootmem.bw_inst_read::.cpu.inst       284315                       # Instruction read bandwidth from this memory (bytes/s)
system.realview.bootmem.bw_inst_read::total       284315                       # Instruction read bandwidth from this memory (bytes/s)
system.realview.bootmem.bw_total::.cpu.inst       284315                       # Total bandwidth to/from this memory (bytes/s)
system.realview.bootmem.bw_total::.cpu.data        47579                       # Total bandwidth to/from this memory (bytes/s)
system.realview.bootmem.bw_total::total        331894                       # Total bandwidth to/from this memory (bytes/s)
system.realview.pci_host.pwrStateResidencyTicks::UNDEFINED 104242652500                       # Cumulative time (in ticks) in various power states
system.realview.rtc.pwrStateResidencyTicks::UNDEFINED 104242652500                       # Cumulative time (in ticks) in various power states
system.realview.uart.pwrStateResidencyTicks::UNDEFINED 104242652500                       # Cumulative time (in ticks) in various power states
system.realview.gicv2m.pwrStateResidencyTicks::UNDEFINED 104242652500                       # Cumulative time (in ticks) in various power states
system.realview.mcc.osc_mcc.clock               20000                       # Clock period in ticks
system.realview.mcc.osc_peripheral.clock        41667                       # Clock period in ticks
system.realview.mcc.osc_clcd.clock              42105                       # Clock period in ticks
system.realview.mcc.osc_system_bus.clock        41667                       # Clock period in ticks
system.realview.dcc.osc_smb.clock               20000                       # Clock period in ticks
system.realview.dcc.osc_hsbm.clock              25000                       # Clock period in ticks
system.realview.dcc.osc_ddr.clock               25000                       # Clock period in ticks
system.realview.dcc.osc_cpu.clock               16667                       # Clock period in ticks
system.realview.dcc.osc_sys.clock               16667                       # Clock period in ticks
system.realview.dcc.osc_pxl.clock               42105                       # Clock period in ticks
system.realview.generic_timer.pwrStateResidencyTicks::UNDEFINED 104242652500                       # Cumulative time (in ticks) in various power states
system.realview.kmi1.pwrStateResidencyTicks::UNDEFINED 104242652500                       # Cumulative time (in ticks) in various power states
system.realview.kmi0.pwrStateResidencyTicks::UNDEFINED 104242652500                       # Cumulative time (in ticks) in various power states
system.realview.gic.pwrStateResidencyTicks::UNDEFINED 104242652500                       # Cumulative time (in ticks) in various power states
system.realview.clock24MHz.clock                41667                       # Clock period in ticks
system.realview.clock24MHz.voltage_domain.voltage     3.300000                       # Voltage in Volts
system.realview.energy_ctrl.pwrStateResidencyTicks::UNDEFINED 104242652500                       # Cumulative time (in ticks) in various power states
system.realview.vio1.pwrStateResidencyTicks::UNDEFINED 104242652500                       # Cumulative time (in ticks) in various power states
system.realview.vio0.pwrStateResidencyTicks::UNDEFINED 104242652500                       # Cumulative time (in ticks) in various power states
system.realview.vgic.pwrStateResidencyTicks::UNDEFINED 104242652500                       # Cumulative time (in ticks) in various power states
system.pci_ide.pwrStateResidencyTicks::UNDEFINED 104242652500                       # Cumulative time (in ticks) in various power states
system.cpu_voltage_domain.voltage                   1                       # Voltage in Volts
system.mem_ctrls.pwrStateResidencyTicks::UNDEFINED 104242652500                       # Cumulative time (in ticks) in various power states
system.mem_ctrls.bytes_read::.acctest.convolution0_dma         3000                       # Number of bytes read from this memory
system.mem_ctrls.bytes_read::.acctest.elem_matrix0_dma    101908480                       # Number of bytes read from this memory
system.mem_ctrls.bytes_read::.acctest.isp0_dma        55884                       # Number of bytes read from this memory
system.mem_ctrls.bytes_read::.cpu.data         304000                       # Number of bytes read from this memory
system.mem_ctrls.bytes_read::total          102271364                       # Number of bytes read from this memory
system.mem_ctrls.bytes_written::.writebacks       190528                       # Number of bytes written to this memory
system.mem_ctrls.bytes_written::.acctest.convolution0_dma      1376256                       # Number of bytes written to this memory
system.mem_ctrls.bytes_written::.acctest.elem_matrix0_dma     48627712                       # Number of bytes written to this memory
system.mem_ctrls.bytes_written::.acctest.grayscale0_dma       196608                       # Number of bytes written to this memory
system.mem_ctrls.bytes_written::total        50391104                       # Number of bytes written to this memory
system.mem_ctrls.num_reads::.acctest.convolution0_dma           60                       # Number of read requests responded to by this memory
system.mem_ctrls.num_reads::.acctest.elem_matrix0_dma      1592320                       # Number of read requests responded to by this memory
system.mem_ctrls.num_reads::.acctest.isp0_dma          876                       # Number of read requests responded to by this memory
system.mem_ctrls.num_reads::.cpu.data            4750                       # Number of read requests responded to by this memory
[...]
system.cpu.icache.ReadReq_misses::.cpu.inst          247                       # number of ReadReq misses
system.cpu.icache.ReadReq_misses::total           247                       # number of ReadReq misses
system.cpu.icache.ReadReq_miss_latency::.cpu.inst     10718750                       # number of ReadReq miss cycles
system.cpu.icache.ReadReq_miss_latency::total     10718750                       # number of ReadReq miss cycles
system.cpu.icache.ReadReq_accesses::.cpu.inst       876062                       # number of ReadReq accesses(hits+misses)
system.cpu.icache.ReadReq_accesses::total       876062                       # number of ReadReq accesses(hits+misses)
system.cpu.icache.ReadReq_miss_rate::.cpu.inst     0.000282                       # miss rate for ReadReq accesses
system.cpu.icache.ReadReq_miss_rate::total     0.000282                       # miss rate for ReadReq accesses
system.cpu.icache.ReadReq_avg_miss_latency::.cpu.inst 43395.748988                       # average ReadReq miss latency
system.cpu.icache.ReadReq_avg_miss_latency::total 43395.748988                       # average ReadReq miss latency
system.cpu.icache.ReadReq_mshr_misses::.cpu.inst          247                       # number of ReadReq MSHR misses
system.cpu.icache.ReadReq_mshr_misses::total          247                       # number of ReadReq MSHR misses
system.cpu.icache.ReadReq_mshr_miss_latency::.cpu.inst     10333500                       # number of ReadReq MSHR miss cycles
system.cpu.icache.ReadReq_mshr_miss_latency::total     10333500                       # number of ReadReq MSHR miss cycles
system.cpu.icache.ReadReq_mshr_miss_rate::.cpu.inst     0.000282                       # mshr miss rate for ReadReq accesses
system.cpu.icache.ReadReq_mshr_miss_rate::total     0.000282                       # mshr miss rate for ReadReq accesses
system.cpu.icache.ReadReq_avg_mshr_miss_latency::.cpu.inst 41836.032389                       # average ReadReq mshr miss latency
system.cpu.icache.ReadReq_avg_mshr_miss_latency::total 41836.032389                       # average ReadReq mshr miss latency
system.cpu.icache.tags.pwrStateResidencyTicks::UNDEFINED 104244015625                       # Cumulative time (in ticks) in various power states
system.cpu.icache.tags.tagsinuse           359.725719                       # Cycle average of tags in use
system.cpu.icache.tags.total_refs            14806310                       # Total number of references to valid blocks.
system.cpu.icache.tags.sampled_refs               437                       # Sample count of references to valid blocks.
system.cpu.icache.tags.avg_refs          33881.716247                       # Average number of references to valid blocks.
system.cpu.icache.tags.warmup_cycle                 0                       # Cycle when the warmup percentage was hit.
system.cpu.icache.tags.occ_blocks::.cpu.inst   359.725719                       # Average occupied blocks per requestor
system.cpu.icache.tags.occ_percent::.cpu.inst     0.702589                       # Average percentage of cache occupancy
system.cpu.icache.tags.occ_percent::total     0.702589                       # Average percentage of cache occupancy
system.cpu.icache.tags.occ_task_id_blocks::1024          365                       # Occupied blocks per task id
system.cpu.icache.tags.age_task_id_blocks_1024::0            3                       # Occupied blocks per task id
system.cpu.icache.tags.age_task_id_blocks_1024::4          362                       # Occupied blocks per task id
system.cpu.icache.tags.occ_task_id_percent::1024     0.712891                       # Percentage of cache occupancy per task id
system.cpu.icache.tags.tag_accesses           1752371                       # Number of tag accesses
system.cpu.icache.tags.data_accesses          1752371                       # Number of data accesses
system.cpu.dtb.walker.pwrStateResidencyTicks::UNDEFINED 104244015625                       # Cumulative time (in ticks) in various power states
system.cpu.dtb.stage2_mmu.stage2_tlb.walker.pwrStateResidencyTicks::UNDEFINED 104244015625                       # Cumulative time (in ticks) in various power states
system.cpu.dcache.pwrStateResidencyTicks::UNDEFINED 104244015625                       # Cumulative time (in ticks) in various power states
system.cpu.dcache.demand_hits::.cpu.data      1113461                       # number of demand (read+write) hits
system.cpu.dcache.demand_hits::total          1113461                       # number of demand (read+write) hits
system.cpu.dcache.overall_hits::.cpu.data      1113461                       # number of overall hits
system.cpu.dcache.overall_hits::total         1113461                       # number of overall hits
system.cpu.dcache.demand_misses::.cpu.data         6086                       # number of demand (read+write) misses
system.cpu.dcache.demand_misses::total           6086                       # number of demand (read+write) misses
system.cpu.dcache.overall_misses::.cpu.data         6086                       # number of overall misses
system.cpu.dcache.overall_misses::total          6086                       # number of overall misses
system.cpu.dcache.demand_miss_latency::.cpu.data    449590125                       # number of demand (read+write) miss cycles
system.cpu.dcache.demand_miss_latency::total    449590125                       # number of demand (read+write) miss cycles
system.cpu.dcache.overall_miss_latency::.cpu.data    449590125                       # number of overall miss cycles
system.cpu.dcache.overall_miss_latency::total    449590125                       # number of overall miss cycles
system.cpu.dcache.demand_accesses::.cpu.data      1119547                       # number of demand (read+write) accesses
system.cpu.dcache.demand_accesses::total      1119547                       # number of demand (read+write) accesses
system.cpu.dcache.overall_accesses::.cpu.data      1119547                       # number of overall (read+write) accesses
system.cpu.dcache.overall_accesses::total      1119547                       # number of overall (read+write) accesses
system.cpu.dcache.demand_miss_rate::.cpu.data     0.005436                       # miss rate for demand accesses
system.cpu.dcache.demand_miss_rate::total     0.005436                       # miss rate for demand accesses
system.cpu.dcache.overall_miss_rate::.cpu.data     0.005436                       # miss rate for overall accesses
system.cpu.dcache.overall_miss_rate::total     0.005436                       # miss rate for overall accesses
system.cpu.dcache.demand_avg_miss_latency::.cpu.data 73872.843411                       # average overall miss latency
system.cpu.dcache.demand_avg_miss_latency::total 73872.843411                       # average overall miss latency
system.cpu.dcache.overall_avg_miss_latency::.cpu.data 73872.843411                       # average overall miss latency
system.cpu.dcache.overall_avg_miss_latency::total 73872.843411                       # average overall miss latency
system.cpu.dcache.blocked_cycles::no_mshrs            0                       # number of cycles access was blocked
system.cpu.dcache.blocked_cycles::no_targets            0                       # number of cycles access was blocked
system.cpu.dcache.blocked::no_mshrs                 0                       # number of cycles access was blocked
system.cpu.dcache.blocked::no_targets               0                       # number of cycles access was blocked
system.cpu.dcache.avg_blocked_cycles::no_mshrs          nan                       # average number of cycles each access was blocked
system.cpu.dcache.avg_blocked_cycles::no_targets          nan                       # average number of cycles each access was blocked
system.cpu.dcache.writebacks::.writebacks         2978                       # number of writebacks
system.cpu.dcache.writebacks::total              2978                       # number of writebacks
system.cpu.dcache.demand_mshr_hits::.cpu.data         1293                       # number of demand (read+write) MSHR hits
system.cpu.dcache.demand_mshr_hits::total         1293                       # number of demand (read+write) MSHR hits
system.cpu.dcache.overall_mshr_hits::.cpu.data         1293                       # number of overall MSHR hits
system.cpu.dcache.overall_mshr_hits::total         1293                       # number of overall MSHR hits
system.cpu.dcache.demand_mshr_misses::.cpu.data         4793                       # number of demand (read+write) MSHR misses
system.cpu.dcache.demand_mshr_misses::total         4793                       # number of demand (read+write) MSHR misses
system.cpu.dcache.overall_mshr_misses::.cpu.data         4793                       # number of overall MSHR misses
system.cpu.dcache.overall_mshr_misses::total         4793                       # number of overall MSHR misses
system.cpu.dcache.overall_mshr_uncacheable_misses::.cpu.data        37058                       # number of overall MSHR uncacheable misses
system.cpu.dcache.overall_mshr_uncacheable_misses::total        37058                       # number of overall MSHR uncacheable misses
system.cpu.dcache.demand_mshr_miss_latency::.cpu.data    354838875                       # number of demand (read+write) MSHR miss cycles
system.cpu.dcache.demand_mshr_miss_latency::total    354838875                       # number of demand (read+write) MSHR miss cycles
system.cpu.dcache.overall_mshr_miss_latency::.cpu.data    354838875                       # number of overall MSHR miss cycles
system.cpu.dcache.overall_mshr_miss_latency::total    354838875                       # number of overall MSHR miss cycles
system.cpu.dcache.overall_mshr_uncacheable_latency::.cpu.data     80436875                       # number of overall MSHR uncacheable cycles
system.cpu.dcache.overall_mshr_uncacheable_latency::total     80436875                       # number of overall MSHR uncacheable cycles
system.cpu.dcache.demand_mshr_miss_rate::.cpu.data     0.004281                       # mshr miss rate for demand accesses
system.cpu.dcache.demand_mshr_miss_rate::total     0.004281                       # mshr miss rate for demand accesses
system.cpu.dcache.overall_mshr_miss_rate::.cpu.data     0.004281                       # mshr miss rate for overall accesses
system.cpu.dcache.overall_mshr_miss_rate::total     0.004281                       # mshr miss rate for overall accesses
system.cpu.dcache.demand_avg_mshr_miss_latency::.cpu.data 74032.730023                       # average overall mshr miss latency
system.cpu.dcache.demand_avg_mshr_miss_latency::total 74032.730023                       # average overall mshr miss latency
system.cpu.dcache.overall_avg_mshr_miss_latency::.cpu.data 74032.730023                       # average overall mshr miss latency
system.cpu.dcache.overall_avg_mshr_miss_latency::total 74032.730023                       # average overall mshr miss latency
system.cpu.dcache.overall_avg_mshr_uncacheable_latency::.cpu.data  2170.567084                       # average overall mshr uncacheable latency
system.cpu.dcache.overall_avg_mshr_uncacheable_latency::total  2170.567084                       # average overall mshr uncacheable latency
system.cpu.dcache.replacements                   4794                       # number of replacements
system.cpu.dcache.ReadReq_hits::.cpu.data       696810                       # number of ReadReq hits
system.cpu.dcache.ReadReq_hits::total          696810                       # number of ReadReq hits
system.cpu.dcache.ReadReq_misses::.cpu.data         3376                       # number of ReadReq misses
system.cpu.dcache.ReadReq_misses::total          3376                       # number of ReadReq misses
system.cpu.dcache.ReadReq_miss_latency::.cpu.data    260017750                       # number of ReadReq miss cycles
system.cpu.dcache.ReadReq_miss_latency::total    260017750                       # number of ReadReq miss cycles
system.cpu.dcache.ReadReq_accesses::.cpu.data       700186                       # number of ReadReq accesses(hits+misses)
system.cpu.dcache.ReadReq_accesses::total       700186                       # number of ReadReq accesses(hits+misses)
system.cpu.dcache.ReadReq_miss_rate::.cpu.data     0.004822                       # miss rate for ReadReq accesses
system.cpu.dcache.ReadReq_miss_rate::total     0.004822                       # miss rate for ReadReq accesses
system.cpu.dcache.ReadReq_avg_miss_latency::.cpu.data 77019.475711                       # average ReadReq miss latency
system.cpu.dcache.ReadReq_avg_miss_latency::total 77019.475711                       # average ReadReq miss latency
system.cpu.dcache.ReadReq_mshr_hits::.cpu.data            6                       # number of ReadReq MSHR hits
system.cpu.dcache.ReadReq_mshr_hits::total            6                       # number of ReadReq MSHR hits
system.cpu.dcache.ReadReq_mshr_misses::.cpu.data         3370                       # number of ReadReq MSHR misses
system.cpu.dcache.ReadReq_mshr_misses::total         3370                       # number of ReadReq MSHR misses
system.cpu.dcache.ReadReq_mshr_uncacheable::.cpu.data         3698                       # number of ReadReq MSHR uncacheable
system.cpu.dcache.ReadReq_mshr_uncacheable::total         3698                       # number of ReadReq MSHR uncacheable
system.cpu.dcache.ReadReq_mshr_miss_latency::.cpu.data    254474375                       # number of ReadReq MSHR miss cycles
system.cpu.dcache.ReadReq_mshr_miss_latency::total    254474375                       # number of ReadReq MSHR miss cycles
system.cpu.dcache.ReadReq_mshr_uncacheable_latency::.cpu.data     80436875                       # number of ReadReq MSHR uncacheable cycles
system.cpu.dcache.ReadReq_mshr_uncacheable_latency::total     80436875                       # number of ReadReq MSHR uncacheable cycles
system.cpu.dcache.ReadReq_mshr_miss_rate::.cpu.data     0.004813                       # mshr miss rate for ReadReq accesses
system.cpu.dcache.ReadReq_mshr_miss_rate::total     0.004813                       # mshr miss rate for ReadReq accesses
system.cpu.dcache.ReadReq_avg_mshr_miss_latency::.cpu.data 75511.683976                       # average ReadReq mshr miss latency
system.cpu.dcache.ReadReq_avg_mshr_miss_latency::total 75511.683976                       # average ReadReq mshr miss latency
system.cpu.dcache.ReadReq_avg_mshr_uncacheable_latency::.cpu.data 21751.453488                       # average ReadReq mshr uncacheable latency
system.cpu.dcache.ReadReq_avg_mshr_uncacheable_latency::total 21751.453488                       # average ReadReq mshr uncacheable latency
system.cpu.dcache.WriteReq_hits::.cpu.data       416651                       # number of WriteReq hits
system.cpu.dcache.WriteReq_hits::total         416651                       # number of WriteReq hits
system.cpu.dcache.WriteReq_misses::.cpu.data         2710                       # number of WriteReq misses
system.cpu.dcache.WriteReq_misses::total         2710                       # number of WriteReq misses
system.cpu.dcache.WriteReq_miss_latency::.cpu.data    189572375                       # number of WriteReq miss cycles
system.cpu.dcache.WriteReq_miss_latency::total    189572375                       # number of WriteReq miss cycles
system.cpu.dcache.WriteReq_accesses::.cpu.data       419361                       # number of WriteReq accesses(hits+misses)
system.cpu.dcache.WriteReq_accesses::total       419361                       # number of WriteReq accesses(hits+misses)
system.cpu.dcache.WriteReq_miss_rate::.cpu.data     0.006462                       # miss rate for WriteReq accesses
system.cpu.dcache.WriteReq_miss_rate::total     0.006462                       # miss rate for WriteReq accesses
system.cpu.dcache.WriteReq_avg_miss_latency::.cpu.data 69952.905904                       # average WriteReq miss latency
system.cpu.dcache.WriteReq_avg_miss_latency::total 69952.905904                       # average WriteReq miss latency
system.cpu.dcache.WriteReq_mshr_hits::.cpu.data         1287                       # number of WriteReq MSHR hits
system.cpu.dcache.WriteReq_mshr_hits::total         1287                       # number of WriteReq MSHR hits
system.cpu.dcache.WriteReq_mshr_misses::.cpu.data         1423                       # number of WriteReq MSHR misses
system.cpu.dcache.WriteReq_mshr_misses::total         1423                       # number of WriteReq MSHR misses
system.cpu.dcache.WriteReq_mshr_uncacheable::.cpu.data        33360                       # number of WriteReq MSHR uncacheable
system.cpu.dcache.WriteReq_mshr_uncacheable::total        33360                       # number of WriteReq MSHR uncacheable
system.cpu.dcache.WriteReq_mshr_miss_latency::.cpu.data    100364500                       # number of WriteReq MSHR miss cycles
system.cpu.dcache.WriteReq_mshr_miss_latency::total    100364500                       # number of WriteReq MSHR miss cycles
system.cpu.dcache.WriteReq_mshr_miss_rate::.cpu.data     0.003393                       # mshr miss rate for WriteReq accesses
system.cpu.dcache.WriteReq_mshr_miss_rate::total     0.003393                       # mshr miss rate for WriteReq accesses
system.cpu.dcache.WriteReq_avg_mshr_miss_latency::.cpu.data 70530.217850                       # average WriteReq mshr miss latency
system.cpu.dcache.WriteReq_avg_mshr_miss_latency::total 70530.217850                       # average WriteReq mshr miss latency
system.cpu.dcache.tags.pwrStateResidencyTicks::UNDEFINED 104244015625                       # Cumulative time (in ticks) in various power states
system.cpu.dcache.tags.tagsinuse                  512                       # Cycle average of tags in use
system.cpu.dcache.tags.total_refs             1120592                       # Total number of references to valid blocks.
system.cpu.dcache.tags.sampled_refs              5306                       # Sample count of references to valid blocks.
system.cpu.dcache.tags.avg_refs            211.193366                       # Average number of references to valid blocks.
system.cpu.dcache.tags.warmup_cycle                 0                       # Cycle when the warmup percentage was hit.
system.cpu.dcache.tags.occ_blocks::.cpu.data          512                       # Average occupied blocks per requestor
system.cpu.dcache.tags.occ_percent::.cpu.data            1                       # Average percentage of cache occupancy
system.cpu.dcache.tags.occ_percent::total            1                       # Average percentage of cache occupancy
system.cpu.dcache.tags.occ_task_id_blocks::1024          512                       # Occupied blocks per task id
system.cpu.dcache.tags.age_task_id_blocks_1024::0            3                       # Occupied blocks per task id
system.cpu.dcache.tags.age_task_id_blocks_1024::1            6                       # Occupied blocks per task id
system.cpu.dcache.tags.age_task_id_blocks_1024::3           36                       # Occupied blocks per task id
system.cpu.dcache.tags.age_task_id_blocks_1024::4          467                       # Occupied blocks per task id
system.cpu.dcache.tags.occ_task_id_percent::1024            1                       # Percentage of cache occupancy per task id
system.cpu.dcache.tags.tag_accesses           4482982                       # Number of tag accesses
system.cpu.dcache.tags.data_accesses          4482982                       # Number of data accesses
system.cpu.itb.walker.pwrStateResidencyTicks::UNDEFINED 104244015625                       # Cumulative time (in ticks) in various power states
system.cpu.itb.stage2_mmu.stage2_tlb.walker.pwrStateResidencyTicks::UNDEFINED 104244015625                       # Cumulative time (in ticks) in various power states

---------- End Simulation Statistics   ----------
