gem5 Simulator System.  http://gem5.org
gem5 is copyrighted software; use the --copyright option for details.

gem5 compiled Jun 12 2023 18:40:01
gem5 started Jul 15 2023 00:22:07
gem5 executing on node4x10a.cs.rochester.edu, pid 71572
command line: /u/sgupta45/gem5-SALAM/build/ARM/gem5_bus.opt --debug-flags=HWACC,CommInterface,LLVMInterface,StreamDma,NoncoherentDma,TickTimer,SchedulerStats --outdir=BM_ARM_OUT/comb_4/canny_0_deblur_1_gru_1_harris_1_lstm_1_LAX configs/SALAM/scheduler.py --mem-size=4GB --mem-type=LPDDR5_6400_1x16_BG_BL32 --kernel=/u/sgupta45/gem5-SALAM/benchmarks/scheduler/sw/bin_comb_4/canny_0_deblur_1_gru_1_harris_1_lstm_1_LAX.elf --vans-config-path=/u/sgupta45/VANS/config --disk-image=/u/sgupta45/gem5-SALAM/baremetal/common/fake.iso --machine-type=VExpress_GEM5_V1 --dtb-file=none --bare-metal --cpu-type=ex5_LITTLE --cpu-clock=1.6GHz --accpath=/u/sgupta45/gem5-SALAM/benchmarks --caches --cacheline_size=64 --l1d_size=32kB --l1d_assoc=4 --l1i_size=32kB --l1i_assoc=2

Global frequency set at 1000000000000 ticks per second
Cycle Counts Loaded!
Cycle Counts Loaded!
Cycle Counts Loaded!
Cycle Counts Loaded!
Cycle Counts Loaded!
Cycle Counts Loaded!
Cycle Counts Loaded!
Cycle Counts Loaded!
Cycle Counts Loaded!
Cycle Counts Loaded!
Cycle Counts Loaded!
**** REAL SIMULATION ****
7224820625: global: Timer #2 started at tick 7224820625
7225832500: global: Timer #2 stopped at tick 7225832500. Duration: 1011875
7232191875: global: Timer #2 started at tick 7232191875
7232608750: global: Timer #2 stopped at tick 7232608750. Duration: 416875
7264051250: global: Timer #2 started at tick 7264051250
7264741875: global: Timer #2 stopped at tick 7264741875. Duration: 690625
7270106250: global: Timer #2 started at tick 7270106250
7270552500: global: Timer #2 stopped at tick 7270552500. Duration: 446250
7320859500: system.acctest.elem_matrix0_dma: SRC:0x00000000821db280, DST:0x0000000024000020, LEN:65536
7326442375: system.acctest.isp0_dma: SRC:0x0000000082058e40, DST:0x0000000027000020, LEN:16900
7326825625: global: Number of accelerators running = 2
7329984375: system.acctest.isp0_dma: Transfer completed in 3.542 us
7330659375: global: Timer #0 started at tick 7330659375
7332089375: global: Timer #1 started at tick 7332089375
7332867500: global: Timer #1 stopped at tick 7332867500. Duration: 778125
7333538500: system.acctest.elem_matrix0_dma: Transfer completed in 12.679 us
7335041250: global: Timer #0 stopped at tick 7335041250. Duration: 4381875
7335103125: global: Number of accelerators running = 2
7335438750: global: Timer #0 started at tick 7335438750
7336103750: global: Timer #1 started at tick 7336103750
7336423750: global: Timer #1 stopped at tick 7336423750. Duration: 320000
7350732375: system.acctest.elem_matrix0_dma: SRC:0x00000000820db0c0, DST:0x0000000024010020, LEN:65536
7351056250: global: Timer #0 stopped at tick 7351056250. Duration: 15617500
7351072500: global: Number of accelerators running = 2
7362728375: system.acctest.elem_matrix0_dma: Transfer completed in 11.996 us
7362896250: global: Timer #0 started at tick 7362896250
7363419375: global: Timer #1 started at tick 7363419375
7363738750: global: Timer #1 stopped at tick 7363738750. Duration: 319375
7365366250: global: Timer #0 stopped at tick 7365366250. Duration: 2470000
7365382500: global: Number of accelerators running = 2
********************************************************************************
system.acctest.isp0.compute
   ========= Performance Analysis =============
   Setup Time:                      0.151969seconds
   Simulation Time:                 454.135seconds
   System Clock:                    1GHz
   Transistor Latency:              1ns
   Runtime:                         34882 cycles
   Runtime:                         34.882 us
   Stalls:                          1 cycles
   Executed Nodes:                  34880 cycles

********************************************************************************
   ========= Performance Analysis =================
   Setup Time:                      1.51969e+08ns
   Simulation Time:                 4.54135e+11ns
   System Clock:                    1GHz
   Transistor Latency:              0ns
   Runtime:                         34882 cycles
   Runtime:                         3.4882e-06 seconds
   Stalls:                          1 cycles
       Load Only:                   0 cycles
       Store Only:                  1 cycles
       Compute Only:                0 cycles
       Compute & Store:             0 cycles
       Load & Store:                0 cycles
       Load & Compute:              0 cycles
       Load & Compute & Store:      0 cycles
   Executed Nodes:                  34880 cycles
       Load Only:                   0 cycles
       Store Only:                  1 cycles
       Compute Only:                3453 cycles
       Compute & Store:             19014 cycles
       Load & Store:                0 cycles
       Load & Compute:              2467 cycles
       Load & Compute & Store:      9945 cycles

   ========= Runtime FU's ========= (Max | Avg) ===
   Counter FU's:                      10 | 0.118075
   Integer Add/Sub FU's:              76 | 0.082082
   Integer Mul/Div FU's:              11 | 0.043888
   Integer Shifter FU's:              42 | 0.055974
   Integer Bitwise FU's:               4 | 0.059443
   Floating Point Float Add/Sub:      53 | 0.116839
   Floating Point Double Add/Sub:      0 | 0.000000
   Floating Point Float Mul/Div:      76 | 0.625626
   Floating Point Double Mul/Div:      0 | 0.000000
   0 Cycle Compare FU's:              85 | 0.664984
   GEP Instruction FU's:              33 | 0.117424
   Type Conversion FU's:             110 | 0.379700

   ========= Static FU's ==========================
   Counter FU's:                    0
   Integer Add/Sub FU's:            0
   Integer Mul/Div FU's:            0
   Integer Shifter FU's:            0
   Integer Bitwise FU's:            0
   Floating Point Float Add/Sub:    0
   Floating Point Double Add/Sub:   0
   Floating Point Float Mul/Div:    0
   Floating Point Double Mul/Div:   0
   0 Cycle Compare FU's:            0
   GEP Instruction FU's:            0
   Type Conversion FU's:            0
   Other:                           0

   ========= Pipeline Register Usage =============
   Total Number of Registers:       1620
   Max Register Usage Per Cycle:    151
   Avg Register Usage Per Cycle:    58.744711
   Avg Register Size (Bytes):       5.073357

   ========= Memory Configuration =================
   Cache Bus Ports:                 0
   Shared Cache Size:               0kB
   Local Bus Ports:                 0
   Private SPM Size:                112kB
   Private Read Ports:              0
   Private Write Ports:             0
   Private Read Bus Width:          64
   Private Write Bus Width:         64
       Memory Reads:                0
       Memory Writes:               0
   ========= Power Analysis ======================
   FU Leakage Power:                1.637787 mW 
   FU Dynamic Power:                9.655087 mW 
   FU Total Power:                  11.292874 mW 

   Registers Leakage Power:          0.021654 mW 
   Registers Dynamic Power:          3.085961 mW 
       Register Reads (Bits):        2049133
       Register Writes (Bits):       2049168
   Registers Total Power:            3.107615 mW

   SPM Leakage Power:               0.061081 mW
   SPM Read Dynamic Power:          11.103730 mW
   SPM Write Dynamic Power:         7.385230 mW
   SPM Total Power:                 18.550041 mW

   Cache Leakage Power:             0.000000 mW
   Cache Read Dynamic Power:        0.000000 mW
   Cache Write Dynamic Power:       0.000000 mW
   Cache Total Power:               0.000000 mW

   Accelerator Power:               14.400490 mW
   Accelerator Power (SPM):         32.950531 mW
   Accelerator Power (Cache):       14.400490 mW

   ========= Area Analysis =======================
   FU Area:                         176023.796875 um^2 (0.176024 mm^2)
   Register Area:                   1760.064941 um^2 (0.001760 mm^2)
   SPM Area:                        2165.394891 um^2 (0.002165 mm^2)
   Cache Area:                      0.000000 um^2 (0.000000 mm^2)

   Accelerator Area:                177783.859375 um^2 (0.177784 mm^2)
   Accelerator Area (SPM):          179949.254266 um^2 (0.179949 mm^2)
   Accelerator Area (Cache):        177783.859375 um^2 (0.177784 mm^2)

   ========= SPM Resizing  =======================
   SPM Optimized Leakage Power:     0.005964 mW
   SPM Opt Area:                    422.108128 um^2

7369359375: global: Timer #0 started at tick 7369359375
7369860625: global: Timer #2 started at tick 7369860625
7370709375: global: Timer #2 stopped at tick 7370709375. Duration: 848750
7371478125: global: DAG ID = 0
7371497500: global: Node ID = 0
7371515625: global: Node deadline difference = -229
7371577500: global: Predicted memory time / byte = 7.27596e-05 us/byte
7371595625: global: Predicted memory time = 1.22964 us
7371613750: global: Predicted memory time / byte = 7.27596e-05 us/byte
7371631875: global: Predicted memory time = 3.57628 us
7371650000: global: Predicted memory time / byte = 0.000254675 us/byte
7371711250: global: Predicted memory time = 4.304 us
7371729375: global: Predicted memory time / byte = 0 us/byte
7371747500: global: Predicted memory time = 0 us
7371765625: global: Predicted memory access size = 0
7371783750: global: Predicted memory access size = 16900
7371846250: global: Predicted memory access size = 0
7371865000: global: Predicted memory access size = 0
7373190875: system.acctest.grayscale0_dma: SRC:0x0000000027004224, DST:0x0000000025000020, LEN:49152
********************************************************************************
system.acctest.elem_matrix0.compute
   ========= Performance Analysis =============
   Setup Time:                      3.394594seconds
   Simulation Time:                 178.586058seconds
   System Clock:                    1.000000GHz
   Transistor Latency:              1ns
   Runtime:                         10932 cycles
   Runtime:                         10.932000 us
   Stalls:                          0 cycles
   Executed Nodes:                  10931 cycles

********************************************************************************
   ========= Performance Analysis =================
   Setup Time:                      3394594409.000000ns
   Simulation Time:                 178586058430.000000ns
   System Clock:                    1.000000GHz
   Transistor Latency:              0ns
   Runtime:                         10932 cycles
   Runtime:                         0.000001 seconds
   Stalls:                          0 cycles
       Load Only:                   0 cycles
       Store Only:                  0 cycles
       Compute Only:                0 cycles
       Compute & Store:             0 cycles
       Load & Store:                0 cycles
       Load & Compute:              0 cycles
       Load & Compute & Store:      0 cycles
   Executed Nodes:                  10931 cycles
       Load Only:                   0 cycles
       Store Only:                  5 cycles
       Compute Only:                1 cycles
       Compute & Store:             21 cycles
       Load & Store:                0 cycles
       Load & Compute:              7 cycles
       Load & Compute & Store:      10897 cycles

   ========= Runtime FU's ========= (Max | Avg) ===
   Counter FU's:                      32 | 0.046838
   Integer Add/Sub FU's:               0 | 0.000000
   Integer Mul/Div FU's:               0 | 0.000000
   Integer Shifter FU's:               0 | 0.000000
   Integer Bitwise FU's:               1 | 0.000091
   Floating Point Float Add/Sub:      34 | 0.044252
   Floating Point Double Add/Sub:      0 | 0.000000
   Floating Point Float Mul/Div:       0 | 0.000000
   Floating Point Double Mul/Div:      0 | 0.000000
   0 Cycle Compare FU's:             102 | 0.046974
   GEP Instruction FU's:              96 | 0.046835
   Type Conversion FU's:               7 | 0.006782

   ========= Static FU's ==========================
   Counter FU's:                    0
   Integer Add/Sub FU's:            0
   Integer Mul/Div FU's:            0
   Integer Shifter FU's:            0
   Integer Bitwise FU's:            0
   Floating Point Float Add/Sub:    0
   Floating Point Double Add/Sub:   0
   Floating Point Float Mul/Div:    0
   Floating Point Double Mul/Div:   0
   0 Cycle Compare FU's:            0
   GEP Instruction FU's:            0
   Type Conversion FU's:            0
   Other:                           0

   ========= Pipeline Register Usage =============
   Total Number of Registers:       5641
   Max Register Usage Per Cycle:    138
   Avg Register Usage Per Cycle:    12.130992
   Avg Register Size (Bytes):       5.980606

   ========= Memory Configuration =================
   Cache Bus Ports:                 0
   Shared Cache Size:               0kB
   Local Bus Ports:                 0
   Private SPM Size:                256kB
   Private Read Ports:              0
   Private Write Ports:             0
   Private Read Bus Width:          64
   Private Write Bus Width:         64
       Memory Reads:                0
       Memory Writes:               0
   ========= Power Analysis ======================
   FU Leakage Power:                0.519269 mW 
   FU Dynamic Power:                0.154621 mW 
   FU Total Power:                  0.673890 mW 

   Registers Leakage Power:          0.005281 mW 
   Registers Dynamic Power:          0.015326 mW 
       Register Reads (Bits):        132616
       Register Writes (Bits):       133658
   Registers Total Power:            0.020607 mW

   SPM Leakage Power:               0.104100 mW
   SPM Read Dynamic Power:          1.997266 mW
   SPM Write Dynamic Power:         0.953321 mW
   SPM Total Power:                 3.054688 mW

   Cache Leakage Power:             0.000000 mW
   Cache Read Dynamic Power:        0.000000 mW
   Cache Write Dynamic Power:       0.000000 mW
   Cache Total Power:               0.000000 mW

   Accelerator Power:               0.694497 mW
   Accelerator Power (SPM):         3.749184 mW
   Accelerator Power (Cache):       0.694497 mW

   ========= Area Analysis =======================
   FU Area:                         70212.562500 um^2 (0.070213 mm^2)
   Register Area:                   429.271088 um^2 (0.000429 mm^2)
   SPM Area:                        2177.365505 um^2 (0.002177 mm^2)
   Cache Area:                      0.000000 um^2 (0.000000 mm^2)

   Accelerator Area:                70641.835938 um^2 (0.070642 mm^2)
   Accelerator Area (SPM):          72819.201442 um^2 (0.072819 mm^2)
   Accelerator Area (Cache):        70641.835938 um^2 (0.070642 mm^2)

   ========= SPM Resizing  =======================
   SPM Optimized Leakage Power:     0.004248 mW
   SPM Opt Area:                    178.524902 um^2

7378012000: system.acctest.isp0_dma: SRC:0x00000000828f6800, DST:0x0000000027000020, LEN:16900
7378289375: global: Timer #0 stopped at tick 7378289375. Duration: 8930000
7378305625: global: Number of accelerators running = 3
7378461875: global: Timer #0 started at tick 7378461875
7378925625: global: Timer #2 started at tick 7378925625
7379541875: global: Timer #2 stopped at tick 7379541875. Duration: 616250
7380022500: global: Timer #2 started at tick 7380022500
7380453125: global: Timer #2 stopped at tick 7380453125. Duration: 430625
7381373000: system.acctest.isp0_dma: Transfer completed in 3.361 us
7382752875: system.acctest.grayscale0_dma: Transfer completed in 9.562 us
7393934500: system.acctest.elem_matrix0_dma: SRC:0x0000000024020020, DST:0x00000000820eb0c0, LEN:65536
7394388750: global: Timer #0 stopped at tick 7394388750. Duration: 15926875
7394405000: global: Number of accelerators running = 3
7394606250: global: Timer #0 started at tick 7394606250
7395110000: global: Timer #1 started at tick 7395110000
7395379375: global: Timer #1 stopped at tick 7395379375. Duration: 269375
7396688750: global: Timer #0 stopped at tick 7396688750. Duration: 2082500
7396748125: global: Number of accelerators running = 3
7397058750: global: Timer #0 started at tick 7397058750
7397636250: global: Timer #1 started at tick 7397636250
7397994375: global: Timer #1 stopped at tick 7397994375. Duration: 358125
7399586250: global: Timer #0 stopped at tick 7399586250. Duration: 2527500
7399687500: global: Number of accelerators running = 3
7400273500: system.acctest.elem_matrix0_dma: Transfer completed in 6.339 us
7400462500: global: Timer #0 started at tick 7400462500
7401012500: global: Timer #1 started at tick 7401012500
7401398750: global: Timer #1 stopped at tick 7401398750. Duration: 386250
7401903125: global: DAG ID = 1
7401967500: global: Node ID = 0
7402042500: global: Node deadline difference = -2225
7402060625: global: Predicted memory time / byte = 7.27596e-05 us/byte
7402078750: global: Predicted memory time = 9.53674 us
7402098750: global: Predicted memory time / byte = 7.27596e-05 us/byte
7402116875: global: Predicted memory time = 4.76837 us
7402135000: global: Predicted memory time / byte = 0.000204292 us/byte
7402153125: global: Predicted memory time = 26.777 us
7402171250: global: Predicted memory time / byte = 0.000100296 us/byte
7402189375: global: Predicted memory time = 6.573 us
7402209375: global: Predicted memory access size = 0
7402227500: global: Predicted memory access size = 131072
7402245625: global: Predicted memory access size = 0
7402263750: global: Predicted memory access size = 65536
********************************************************************************
system.acctest.grayscale0.compute
   ========= Performance Analysis =============
   Setup Time:                      0.012297seconds
   Simulation Time:                 303.743227seconds
   System Clock:                    1.000000GHz
   Transistor Latency:              1ns
   Runtime:                         10263 cycles
   Runtime:                         10.263000 us
   Stalls:                          1 cycles
   Executed Nodes:                  10261 cycles

********************************************************************************
   ========= Performance Analysis =================
   Setup Time:                      12296812.000000ns
   Simulation Time:                 303743226560.000000ns
   System Clock:                    1.000000GHz
   Transistor Latency:              0ns
   Runtime:                         10263 cycles
   Runtime:                         0.000001 seconds
   Stalls:                          1 cycles
       Load Only:                   0 cycles
       Store Only:                  1 cycles
       Compute Only:                0 cycles
       Compute & Store:             0 cycles
       Load & Store:                0 cycles
       Load & Compute:              0 cycles
       Load & Compute & Store:      0 cycles
   Executed Nodes:                  10261 cycles
       Load Only:                   0 cycles
       Store Only:                  1 cycles
       Compute Only:                88 cycles
       Compute & Store:             344 cycles
       Load & Store:                0 cycles
       Load & Compute:              1981 cycles
       Load & Compute & Store:      7847 cycles

   ========= Runtime FU's ========= (Max | Avg) ===
   Counter FU's:                      24 | 0.199556
   Integer Add/Sub FU's:               0 | 0.000000
   Integer Mul/Div FU's:               8 | 0.199552
   Integer Shifter FU's:               0 | 0.000000
   Integer Bitwise FU's:               1 | 0.000097
   Floating Point Float Add/Sub:      49 | 0.114264
   Floating Point Double Add/Sub:      0 | 0.000000
   Floating Point Float Mul/Div:      42 | 0.114129
   Floating Point Double Mul/Div:      0 | 0.000000
   0 Cycle Compare FU's:               9 | 0.066626
   GEP Instruction FU's:              36 | 0.177452
   Type Conversion FU's:              76 | 0.401969

   ========= Static FU's ==========================
   Counter FU's:                    0
   Integer Add/Sub FU's:            0
   Integer Mul/Div FU's:            0
   Integer Shifter FU's:            0
   Integer Bitwise FU's:            0
   Floating Point Float Add/Sub:    0
   Floating Point Double Add/Sub:   0
   Floating Point Float Mul/Div:    0
   Floating Point Double Mul/Div:   0
   0 Cycle Compare FU's:            0
   GEP Instruction FU's:            0
   Type Conversion FU's:            0
   Other:                           0

   ========= Pipeline Register Usage =============
   Total Number of Registers:       235
   Max Register Usage Per Cycle:    90
   Avg Register Usage Per Cycle:    33.924291
   Avg Register Size (Bytes):       5.841147

   ========= Memory Configuration =================
   Cache Bus Ports:                 0
   Shared Cache Size:               0kB
   Local Bus Ports:                 0
   Private SPM Size:                176kB
   Private Read Ports:              0
   Private Write Ports:             0
   Private Read Bus Width:          64
   Private Write Bus Width:         64
       Memory Reads:                0
       Memory Writes:               0
   ========= Power Analysis ======================
   FU Leakage Power:                1.178269 mW 
   FU Dynamic Power:                0.617392 mW 
   FU Total Power:                  1.795662 mW 

   Registers Leakage Power:          0.014185 mW 
   Registers Dynamic Power:          0.101057 mW 
       Register Reads (Bits):        348165
       Register Writes (Bits):       348168
   Registers Total Power:            0.115242 mW

   SPM Leakage Power:               0.089881 mW
   SPM Read Dynamic Power:          6.997296 mW
   SPM Write Dynamic Power:         2.062375 mW
   SPM Total Power:                 9.149552 mW

   Cache Leakage Power:             0.000000 mW
   Cache Read Dynamic Power:        0.000000 mW
   Cache Write Dynamic Power:       0.000000 mW
   Cache Total Power:               0.000000 mW

   Accelerator Power:               1.910904 mW
   Accelerator Power (SPM):         11.060456 mW
   Accelerator Power (Cache):       1.910904 mW

   ========= Area Analysis =======================
   FU Area:                         143348.187500 um^2 (0.143348 mm^2)
   Register Area:                   1152.968140 um^2 (0.001153 mm^2)
   SPM Area:                        3573.642862 um^2 (0.003574 mm^2)
   Cache Area:                      0.000000 um^2 (0.000000 mm^2)

   Accelerator Area:                144501.156250 um^2 (0.144501 mm^2)
   Accelerator Area (SPM):          148074.799112 um^2 (0.148075 mm^2)
   Accelerator Area (Cache):        144501.156250 um^2 (0.144501 mm^2)

   ========= SPM Resizing  =======================
   SPM Optimized Leakage Power:     0.003633 mW
   SPM Opt Area:                    364.024374 um^2

7415973750: system.acctest.elem_matrix0_dma: SRC:0x000000008209af40, DST:0x0000000024000020, LEN:65536
7416185625: global: Timer #0 stopped at tick 7416185625. Duration: 15723125
7416201875: global: Number of accelerators running = 3
7416443750: global: Timer #0 started at tick 7416443750
7416858750: global: Timer #2 started at tick 7416858750
7417483750: global: Timer #2 stopped at tick 7417483750. Duration: 625000
7428016750: system.acctest.elem_matrix0_dma: Transfer completed in 12.043 us
********************************************************************************
system.acctest.isp0.compute
   ========= Performance Analysis =============
   Setup Time:                      0.410319seconds
   Simulation Time:                 830.761367seconds
   System Clock:                    1.000000GHz
   Transistor Latency:              1ns
   Runtime:                         34882 cycles
   Runtime:                         34.882000 us
   Stalls:                          1 cycles
   Executed Nodes:                  34880 cycles

********************************************************************************
   ========= Performance Analysis =================
   Setup Time:                      410319083.000000ns
   Simulation Time:                 830761367018.000000ns
   System Clock:                    1.000000GHz
   Transistor Latency:              0ns
   Runtime:                         34882 cycles
   Runtime:                         0.000003 seconds
   Stalls:                          1 cycles
       Load Only:                   0 cycles
       Store Only:                  1 cycles
       Compute Only:                0 cycles
       Compute & Store:             0 cycles
       Load & Store:                0 cycles
       Load & Compute:              0 cycles
       Load & Compute & Store:      0 cycles
   Executed Nodes:                  34880 cycles
       Load Only:                   0 cycles
       Store Only:                  1 cycles
       Compute Only:                3453 cycles
       Compute & Store:             19014 cycles
       Load & Store:                0 cycles
       Load & Compute:              2467 cycles
       Load & Compute & Store:      9945 cycles

   ========= Runtime FU's ========= (Max | Avg) ===
   Counter FU's:                      10 | 0.118075
   Integer Add/Sub FU's:              76 | 0.082082
   Integer Mul/Div FU's:              11 | 0.043888
   Integer Shifter FU's:              42 | 0.055974
   Integer Bitwise FU's:               4 | 0.059443
   Floating Point Float Add/Sub:      53 | 0.116839
   Floating Point Double Add/Sub:      0 | 0.000000
   Floating Point Float Mul/Div:      76 | 0.625626
   Floating Point Double Mul/Div:      0 | 0.000000
   0 Cycle Compare FU's:              85 | 0.664984
   GEP Instruction FU's:              33 | 0.117424
   Type Conversion FU's:             110 | 0.379700

   ========= Static FU's ==========================
   Counter FU's:                    0
   Integer Add/Sub FU's:            0
   Integer Mul/Div FU's:            0
   Integer Shifter FU's:            0
   Integer Bitwise FU's:            0
   Floating Point Float Add/Sub:    0
   Floating Point Double Add/Sub:   0
   Floating Point Float Mul/Div:    0
   Floating Point Double Mul/Div:   0
   0 Cycle Compare FU's:            0
   GEP Instruction FU's:            0
   Type Conversion FU's:            0
   Other:                           0

   ========= Pipeline Register Usage =============
   Total Number of Registers:       1620
   Max Register Usage Per Cycle:    151
   Avg Register Usage Per Cycle:    58.744711
   Avg Register Size (Bytes):       5.073357

   ========= Memory Configuration =================
   Cache Bus Ports:                 0
   Shared Cache Size:               0kB
   Local Bus Ports:                 0
   Private SPM Size:                112kB
   Private Read Ports:              0
   Private Write Ports:             0
   Private Read Bus Width:          64
   Private Write Bus Width:         64
       Memory Reads:                0
       Memory Writes:               0
   ========= Power Analysis ======================
   FU Leakage Power:                1.637787 mW 
   FU Dynamic Power:                9.655087 mW 
   FU Total Power:                  11.292874 mW 

   Registers Leakage Power:          0.021654 mW 
   Registers Dynamic Power:          3.085961 mW 
       Register Reads (Bits):        2049133
       Register Writes (Bits):       2049168
   Registers Total Power:            3.107615 mW

   SPM Leakage Power:               0.061081 mW
   SPM Read Dynamic Power:          15.102444 mW
   SPM Write Dynamic Power:         10.618341 mW
   SPM Total Power:                 25.781867 mW

   Cache Leakage Power:             0.000000 mW
   Cache Read Dynamic Power:        0.000000 mW
   Cache Write Dynamic Power:       0.000000 mW
   Cache Total Power:               0.000000 mW

   Accelerator Power:               14.400490 mW
   Accelerator Power (SPM):         40.182357 mW
   Accelerator Power (Cache):       14.400490 mW

   ========= Area Analysis =======================
   FU Area:                         176023.796875 um^2 (0.176024 mm^2)
   Register Area:                   1760.064941 um^2 (0.001760 mm^2)
   SPM Area:                        2165.394891 um^2 (0.002165 mm^2)
   Cache Area:                      0.000000 um^2 (0.000000 mm^2)

   Accelerator Area:                177783.859375 um^2 (0.177784 mm^2)
   Accelerator Area (SPM):          179949.254266 um^2 (0.179949 mm^2)
   Accelerator Area (Cache):        177783.859375 um^2 (0.177784 mm^2)

   ========= SPM Resizing  =======================
   SPM Optimized Leakage Power:     0.005964 mW
   SPM Opt Area:                    422.108128 um^2

7431828750: system.acctest.grayscale0_dma: SRC:0x000000002500c020, DST:0x0000000082069200, LEN:65536
7433511000: system.acctest.convolution0_dma: SRC:0x000000002500c020, DST:0x0000000022000020, LEN:65536
7433946875: global: Timer #0 stopped at tick 7433946875. Duration: 17503125
7433963125: global: Number of accelerators running = 4
7434213125: global: Timer #0 started at tick 7434213125
7434704375: global: Timer #1 started at tick 7434704375
7434991875: global: Timer #1 stopped at tick 7434991875. Duration: 287500
7437046250: global: Timer #0 stopped at tick 7437046250. Duration: 2833125
7437062500: global: Number of accelerators running = 4
7437313125: global: Timer #0 started at tick 7437313125
7437693750: global: Timer #2 started at tick 7437693750
7438045000: global: Timer #2 stopped at tick 7438045000. Duration: 351250
7442826750: system.acctest.grayscale0_dma: Transfer completed in 10.998 us
7447028000: system.acctest.convolution0_dma: Transfer completed in 13.517 us
********************************************************************************
system.acctest.elem_matrix0.compute
   ========= Performance Analysis =============
   Setup Time:                      10.176679seconds
   Simulation Time:                 177.442704seconds
   System Clock:                    1.000000GHz
   Transistor Latency:              1ns
   Runtime:                         10932 cycles
   Runtime:                         10.932000 us
   Stalls:                          1 cycles
   Executed Nodes:                  10930 cycles

********************************************************************************
   ========= Performance Analysis =================
   Setup Time:                      10176679392.000000ns
   Simulation Time:                 177442704093.000000ns
   System Clock:                    1.000000GHz
   Transistor Latency:              0ns
   Runtime:                         10932 cycles
   Runtime:                         0.000001 seconds
   Stalls:                          1 cycles
       Load Only:                   0 cycles
       Store Only:                  1 cycles
       Compute Only:                0 cycles
       Compute & Store:             0 cycles
       Load & Store:                0 cycles
       Load & Compute:              0 cycles
       Load & Compute & Store:      0 cycles
   Executed Nodes:                  10930 cycles
       Load Only:                   0 cycles
       Store Only:                  4 cycles
       Compute Only:                1 cycles
       Compute & Store:             21 cycles
       Load & Store:                0 cycles
       Load & Compute:              6 cycles
       Load & Compute & Store:      10898 cycles

   ========= Runtime FU's ========= (Max | Avg) ===
   Counter FU's:                      32 | 0.046838
   Integer Add/Sub FU's:               0 | 0.000000
   Integer Mul/Div FU's:               0 | 0.000000
   Integer Shifter FU's:               0 | 0.000000
   Integer Bitwise FU's:               1 | 0.000091
   Floating Point Float Add/Sub:       0 | 0.000000
   Floating Point Double Add/Sub:      0 | 0.000000
   Floating Point Float Mul/Div:      34 | 0.044252
   Floating Point Double Mul/Div:      0 | 0.000000
   0 Cycle Compare FU's:             102 | 0.046945
   GEP Instruction FU's:              96 | 0.046835
   Type Conversion FU's:               7 | 0.006782

   ========= Static FU's ==========================
   Counter FU's:                    0
   Integer Add/Sub FU's:            0
   Integer Mul/Div FU's:            0
   Integer Shifter FU's:            0
   Integer Bitwise FU's:            0
   Floating Point Float Add/Sub:    0
   Floating Point Double Add/Sub:   0
   Floating Point Float Mul/Div:    0
   Floating Point Double Mul/Div:   0
   0 Cycle Compare FU's:            0
   GEP Instruction FU's:            0
   Type Conversion FU's:            0
   Other:                           0

   ========= Pipeline Register Usage =============
   Total Number of Registers:       5641
   Max Register Usage Per Cycle:    137
   Avg Register Usage Per Cycle:    12.130992
   Avg Register Size (Bytes):       5.980606

   ========= Memory Configuration =================
   Cache Bus Ports:                 0
   Shared Cache Size:               0kB
   Local Bus Ports:                 0
   Private SPM Size:                256kB
   Private Read Ports:              0
   Private Write Ports:             0
   Private Read Bus Width:          64
   Private Write Bus Width:         64
       Memory Reads:                0
       Memory Writes:               0
   ========= Power Analysis ======================
   FU Leakage Power:                0.045377 mW 
   FU Dynamic Power:                0.142576 mW 
   FU Total Power:                  0.187953 mW 

   Registers Leakage Power:          0.005281 mW 
   Registers Dynamic Power:          0.015326 mW 
       Register Reads (Bits):        132616
       Register Writes (Bits):       133658
   Registers Total Power:            0.020607 mW

   SPM Leakage Power:               0.104100 mW
   SPM Read Dynamic Power:          2.785289 mW
   SPM Write Dynamic Power:         2.044305 mW
   SPM Total Power:                 4.933694 mW

   Cache Leakage Power:             0.000000 mW
   Cache Read Dynamic Power:        0.000000 mW
   Cache Write Dynamic Power:       0.000000 mW
   Cache Total Power:               0.000000 mW

   Accelerator Power:               0.208559 mW
   Accelerator Power (SPM):         5.142254 mW
   Accelerator Power (Cache):       0.208559 mW

   ========= Area Analysis =======================
   FU Area:                         5472.068359 um^2 (0.005472 mm^2)
   Register Area:                   429.271088 um^2 (0.000429 mm^2)
   SPM Area:                        2177.365505 um^2 (0.002177 mm^2)
   Cache Area:                      0.000000 um^2 (0.000000 mm^2)

   Accelerator Area:                5901.339355 um^2 (0.005901 mm^2)
   Accelerator Area (SPM):          8078.704860 um^2 (0.008079 mm^2)
   Accelerator Area (Cache):        5901.339355 um^2 (0.005901 mm^2)

   ========= SPM Resizing  =======================
   SPM Optimized Leakage Power:     0.004248 mW
   SPM Opt Area:                    178.524902 um^2

7448265875: system.acctest.isp0_dma: SRC:0x0000000027010224, DST:0x00000000828faa40, LEN:49152
7448656250: global: Timer #0 stopped at tick 7448656250. Duration: 11343125
7448672500: global: Number of accelerators running = 4
7448790625: global: Timer #0 started at tick 7448790625
7449099375: global: Timer #1 started at tick 7449099375
7449171875: global: Timer #1 stopped at tick 7449171875. Duration: 72500
7450305625: global: DAG ID = 0
7450319375: global: Node ID = 1
7450337500: global: Node deadline difference = -187
7450350000: global: Predicted memory time / byte = 0.000185562 us/byte
7450362500: global: Predicted memory time = 9.12075 us
7450375000: global: Predicted memory time / byte = 0.000185562 us/byte
7450387500: global: Predicted memory time = 12.161 us
7450400000: global: Predicted memory time / byte = 0.000486369 us/byte
7450412500: global: Predicted memory time = 23.906 us
7450425000: global: Predicted memory time / byte = 0.000257339 us/byte
7450437500: global: Predicted memory time = 16.865 us
7450450000: global: Predicted memory access size = 0
7450462500: global: Predicted memory access size = 49152
7450475000: global: Predicted memory access size = 0
7450487500: global: Predicted memory access size = 65536
7450661250: global: Timer #0 stopped at tick 7450661250. Duration: 1870625
7450677500: global: Number of accelerators running = 3
7450810625: global: Timer #0 started at tick 7450810625
7451303750: global: Timer #1 started at tick 7451303750
7451545000: global: Timer #1 stopped at tick 7451545000. Duration: 241250
7452950000: system.acctest.convolution0_dma: SRC:0x0000000082018780, DST:0x0000000022030020, LEN:100
7453113000: system.acctest.convolution0_dma: Transfer completed in 0.163 us
7453280000: global: Timer #0 stopped at tick 7453280000. Duration: 2469375
7453296250: global: Number of accelerators running = 3
7453640625: global: Timer #0 started at tick 7453640625
7453738875: system.acctest.isp0_dma: Transfer completed in 5.473 us
7454063125: global: Timer #2 started at tick 7454063125
7454484375: global: Timer #2 stopped at tick 7454484375. Duration: 421250
7454788750: global: DAG ID = 1
7454802500: global: Node ID = 5
7454815625: global: Node deadline difference = -2229
7454828125: global: Predicted memory time / byte = 0.000185562 us/byte
7454840625: global: Predicted memory time = 24.322 us
7454853125: global: Predicted memory time / byte = 0.000185562 us/byte
7454865625: global: Predicted memory time = 12.161 us
7454878125: global: Predicted memory time / byte = 0.000278397 us/byte
7454890625: global: Predicted memory time = 18.245 us
7454903125: global: Predicted memory time / byte = 0 us/byte
7454915625: global: Predicted memory time = 0 us
7454928125: global: Predicted memory access size = 0
7454940625: global: Predicted memory access size = 65536
7454953125: global: Predicted memory access size = 0
7454965625: global: Predicted memory access size = 0
7468499500: system.acctest.elem_matrix0_dma: SRC:0x00000000820aaf40, DST:0x0000000024000020, LEN:65536
7468746250: global: Timer #0 stopped at tick 7468746250. Duration: 15105625
7468762500: global: Number of accelerators running = 3
7468968125: global: Timer #0 started at tick 7468968125
7470821250: global: Timer #0 stopped at tick 7470821250. Duration: 1853125
7470837500: global: Number of accelerators running = 3
7470960625: global: Timer #0 started at tick 7470960625
7471269375: global: Timer #1 started at tick 7471269375
7471635625: global: Timer #1 stopped at tick 7471635625. Duration: 366250
7471959375: global: DAG ID = 2
7471973125: global: Node ID = 0
7471991250: global: Node deadline difference = -13860
7472003750: global: Predicted memory time / byte = 7.27596e-05 us/byte
7472016250: global: Predicted memory time = 1.22964 us
7472028750: global: Predicted memory time / byte = 7.27596e-05 us/byte
7472041250: global: Predicted memory time = 3.57628 us
7472053750: global: Predicted memory time / byte = 0.00098213 us/byte
7472066250: global: Predicted memory time = 16.598 us
7472078750: global: Predicted memory time / byte = 0.000459696 us/byte
7472091250: global: Predicted memory time = 22.595 us
7472103750: global: Predicted memory access size = 0
7472116250: global: Predicted memory access size = 16900
7472128750: global: Predicted memory access size = 0
7472141250: global: Predicted memory access size = 49152
7480488500: system.acctest.elem_matrix0_dma: Transfer completed in 11.989 us
7482381625: system.acctest.grayscale0_dma: SRC:0x00000000828faa40, DST:0x0000000025000020, LEN:49152
7482590000: global: Timer #0 stopped at tick 7482590000. Duration: 11629375
7482606250: global: Number of accelerators running = 3
7482765000: global: Timer #0 started at tick 7482765000
7483220000: global: Timer #1 started at tick 7483220000
7483456875: global: Timer #1 stopped at tick 7483456875. Duration: 236875
7485115625: global: Timer #0 stopped at tick 7485115625. Duration: 2350625
7485175000: global: Number of accelerators running = 3
7491198625: system.acctest.grayscale0_dma: Transfer completed in 8.817 us
7491285000: global: Timer #0 started at tick 7491285000
7491778125: global: Timer #1 started at tick 7491778125
7492070625: global: Timer #1 stopped at tick 7492070625. Duration: 292500
7493276250: global: Timer #0 stopped at tick 7493276250. Duration: 1991250
7493377500: global: Number of accelerators running = 3
********************************************************************************
system.acctest.elem_matrix0.compute
   ========= Performance Analysis =============
   Setup Time:                      7.106585seconds
   Simulation Time:                 222.902319seconds
   System Clock:                    1.000000GHz
   Transistor Latency:              1ns
   Runtime:                         10932 cycles
   Runtime:                         10.932000 us
   Stalls:                          0 cycles
   Executed Nodes:                  10931 cycles

********************************************************************************
   ========= Performance Analysis =================
   Setup Time:                      7106584556.000000ns
   Simulation Time:                 222902318636.000000ns
   System Clock:                    1.000000GHz
   Transistor Latency:              0ns
   Runtime:                         10932 cycles
   Runtime:                         0.000001 seconds
   Stalls:                          0 cycles
       Load Only:                   0 cycles
       Store Only:                  0 cycles
       Compute Only:                0 cycles
       Compute & Store:             0 cycles
       Load & Store:                0 cycles
       Load & Compute:              0 cycles
       Load & Compute & Store:      0 cycles
   Executed Nodes:                  10931 cycles
       Load Only:                   0 cycles
       Store Only:                  5 cycles
       Compute Only:                1 cycles
       Compute & Store:             21 cycles
       Load & Store:                0 cycles
       Load & Compute:              7 cycles
       Load & Compute & Store:      10897 cycles

   ========= Runtime FU's ========= (Max | Avg) ===
   Counter FU's:                      32 | 0.046838
   Integer Add/Sub FU's:               0 | 0.000000
   Integer Mul/Div FU's:               0 | 0.000000
   Integer Shifter FU's:               0 | 0.000000
   Integer Bitwise FU's:               1 | 0.000091
   Floating Point Float Add/Sub:      34 | 0.044252
   Floating Point Double Add/Sub:      0 | 0.000000
   Floating Point Float Mul/Div:       0 | 0.000000
   Floating Point Double Mul/Div:      0 | 0.000000
   0 Cycle Compare FU's:             102 | 0.046974
   GEP Instruction FU's:              96 | 0.046835
   Type Conversion FU's:               7 | 0.006782

   ========= Static FU's ==========================
   Counter FU's:                    0
   Integer Add/Sub FU's:            0
   Integer Mul/Div FU's:            0
   Integer Shifter FU's:            0
   Integer Bitwise FU's:            0
   Floating Point Float Add/Sub:    0
   Floating Point Double Add/Sub:   0
   Floating Point Float Mul/Div:    0
   Floating Point Double Mul/Div:   0
   0 Cycle Compare FU's:            0
   GEP Instruction FU's:            0
   Type Conversion FU's:            0
   Other:                           0

   ========= Pipeline Register Usage =============
   Total Number of Registers:       5641
   Max Register Usage Per Cycle:    138
   Avg Register Usage Per Cycle:    12.130992
   Avg Register Size (Bytes):       5.980606

   ========= Memory Configuration =================
   Cache Bus Ports:                 0
   Shared Cache Size:               0kB
   Local Bus Ports:                 0
   Private SPM Size:                256kB
   Private Read Ports:              0
   Private Write Ports:             0
   Private Read Bus Width:          64
   Private Write Bus Width:         64
       Memory Reads:                0
       Memory Writes:               0
   ========= Power Analysis ======================
   FU Leakage Power:                0.519269 mW 
   FU Dynamic Power:                0.154621 mW 
   FU Total Power:                  0.673890 mW 

   Registers Leakage Power:          0.005281 mW 
   Registers Dynamic Power:          0.015326 mW 
       Register Reads (Bits):        132616
       Register Writes (Bits):       133658
   Registers Total Power:            0.020607 mW

   SPM Leakage Power:               0.104100 mW
   SPM Read Dynamic Power:          3.776796 mW
   SPM Write Dynamic Power:         2.457440 mW
   SPM Total Power:                 6.338336 mW

   Cache Leakage Power:             0.000000 mW
   Cache Read Dynamic Power:        0.000000 mW
   Cache Write Dynamic Power:       0.000000 mW
   Cache Total Power:               0.000000 mW

   Accelerator Power:               0.694497 mW
   Accelerator Power (SPM):         7.032833 mW
   Accelerator Power (Cache):       0.694497 mW

   ========= Area Analysis =======================
   FU Area:                         70212.562500 um^2 (0.070213 mm^2)
   Register Area:                   429.271088 um^2 (0.000429 mm^2)
   SPM Area:                        2177.365505 um^2 (0.002177 mm^2)
   Cache Area:                      0.000000 um^2 (0.000000 mm^2)

   Accelerator Area:                70641.835938 um^2 (0.070642 mm^2)
   Accelerator Area (SPM):          72819.201442 um^2 (0.072819 mm^2)
   Accelerator Area (Cache):        70641.835938 um^2 (0.070642 mm^2)

   ========= SPM Resizing  =======================
   SPM Optimized Leakage Power:     0.004248 mW
   SPM Opt Area:                    178.524902 um^2

7495875000: global: Timer #0 started at tick 7495875000
7496450000: global: Timer #2 started at tick 7496450000
7496941875: global: Timer #2 stopped at tick 7496941875. Duration: 491875
7497198750: global: DAG ID = 1
7497212500: global: Node ID = 6
7497225625: global: Node deadline difference = -2243
7497238125: global: Predicted memory time / byte = 0.000263321 us/byte
7497250625: global: Predicted memory time = 34.514 us
7497263125: global: Predicted memory time / byte = 0.000263321 us/byte
7497275625: global: Predicted memory time = 17.257 us
7497288125: global: Predicted memory time / byte = 0.000217743 us/byte
7497300625: global: Predicted memory time = 14.27 us
7497313125: global: Predicted memory time / byte = 0 us/byte
7497325625: global: Predicted memory time = 0 us
7497338125: global: Predicted memory access size = 0
7497350625: global: Predicted memory access size = 65536
7497363125: global: Predicted memory access size = 0
7497375625: global: Predicted memory access size = 0
7498783750: global: Timer #0 stopped at tick 7498783750. Duration: 2908750
7498800000: global: Number of accelerators running = 3
********************************************************************************
system.acctest.grayscale0.compute
   ========= Performance Analysis =============
   Setup Time:                      0.010021seconds
   Simulation Time:                 329.167931seconds
   System Clock:                    1.000000GHz
   Transistor Latency:              1ns
   Runtime:                         10263 cycles
   Runtime:                         10.263000 us
   Stalls:                          1 cycles
   Executed Nodes:                  10261 cycles

********************************************************************************
   ========= Performance Analysis =================
   Setup Time:                      10020858.000000ns
   Simulation Time:                 329167930994.000000ns
   System Clock:                    1.000000GHz
   Transistor Latency:              0ns
   Runtime:                         10263 cycles
   Runtime:                         0.000001 seconds
   Stalls:                          1 cycles
       Load Only:                   0 cycles
       Store Only:                  1 cycles
       Compute Only:                0 cycles
       Compute & Store:             0 cycles
       Load & Store:                0 cycles
       Load & Compute:              0 cycles
       Load & Compute & Store:      0 cycles
   Executed Nodes:                  10261 cycles
       Load Only:                   0 cycles
       Store Only:                  1 cycles
       Compute Only:                88 cycles
       Compute & Store:             344 cycles
       Load & Store:                0 cycles
       Load & Compute:              1981 cycles
       Load & Compute & Store:      7847 cycles

   ========= Runtime FU's ========= (Max | Avg) ===
   Counter FU's:                      24 | 0.199556
   Integer Add/Sub FU's:               0 | 0.000000
   Integer Mul/Div FU's:               8 | 0.199552
   Integer Shifter FU's:               0 | 0.000000
   Integer Bitwise FU's:               1 | 0.000097
   Floating Point Float Add/Sub:      49 | 0.114264
   Floating Point Double Add/Sub:      0 | 0.000000
   Floating Point Float Mul/Div:      42 | 0.114129
   Floating Point Double Mul/Div:      0 | 0.000000
   0 Cycle Compare FU's:               9 | 0.066626
   GEP Instruction FU's:              36 | 0.177452
   Type Conversion FU's:              76 | 0.401969

   ========= Static FU's ==========================
   Counter FU's:                    0
   Integer Add/Sub FU's:            0
   Integer Mul/Div FU's:            0
   Integer Shifter FU's:            0
   Integer Bitwise FU's:            0
   Floating Point Float Add/Sub:    0
   Floating Point Double Add/Sub:   0
   Floating Point Float Mul/Div:    0
   Floating Point Double Mul/Div:   0
   0 Cycle Compare FU's:            0
   GEP Instruction FU's:            0
   Type Conversion FU's:            0
   Other:                           0

   ========= Pipeline Register Usage =============
   Total Number of Registers:       235
   Max Register Usage Per Cycle:    90
   Avg Register Usage Per Cycle:    33.924291
   Avg Register Size (Bytes):       5.841147

   ========= Memory Configuration =================
   Cache Bus Ports:                 0
   Shared Cache Size:               0kB
   Local Bus Ports:                 0
   Private SPM Size:                176kB
   Private Read Ports:              0
   Private Write Ports:             0
   Private Read Bus Width:          64
   Private Write Bus Width:         64
       Memory Reads:                0
       Memory Writes:               0
   ========= Power Analysis ======================
   FU Leakage Power:                1.178269 mW 
   FU Dynamic Power:                0.617392 mW 
   FU Total Power:                  1.795662 mW 

   Registers Leakage Power:          0.014185 mW 
   Registers Dynamic Power:          0.101057 mW 
       Register Reads (Bits):        348165
       Register Writes (Bits):       348168
   Registers Total Power:            0.115242 mW

   SPM Leakage Power:               0.089881 mW
   SPM Read Dynamic Power:          10.232207 mW
   SPM Write Dynamic Power:         5.980668 mW
   SPM Total Power:                 16.302756 mW

   Cache Leakage Power:             0.000000 mW
   Cache Read Dynamic Power:        0.000000 mW
   Cache Write Dynamic Power:       0.000000 mW
   Cache Total Power:               0.000000 mW

   Accelerator Power:               1.910904 mW
   Accelerator Power (SPM):         18.213660 mW
   Accelerator Power (Cache):       1.910904 mW

   ========= Area Analysis =======================
   FU Area:                         143348.187500 um^2 (0.143348 mm^2)
   Register Area:                   1152.968140 um^2 (0.001153 mm^2)
   SPM Area:                        3573.642862 um^2 (0.003574 mm^2)
   Cache Area:                      0.000000 um^2 (0.000000 mm^2)

   Accelerator Area:                144501.156250 um^2 (0.144501 mm^2)
   Accelerator Area (SPM):          148074.799112 um^2 (0.148075 mm^2)
   Accelerator Area (Cache):        144501.156250 um^2 (0.144501 mm^2)

   ========= SPM Resizing  =======================
   SPM Optimized Leakage Power:     0.003633 mW
   SPM Opt Area:                    364.024374 um^2

7503428750: global: Timer #0 started at tick 7503428750
7503793125: global: Timer #2 started at tick 7503793125
7504221250: global: Timer #2 stopped at tick 7504221250. Duration: 428125
7504525625: global: Timer #2 started at tick 7504525625
7504833125: global: Timer #2 stopped at tick 7504833125. Duration: 307500
********************************************************************************
system.acctest.elem_matrix0.compute
   ========= Performance Analysis =============
   Setup Time:                      7.978580seconds
   Simulation Time:                 243.143763seconds
   System Clock:                    1.000000GHz
   Transistor Latency:              1ns
   Runtime:                         8316 cycles
   Runtime:                         8.316000 us
   Stalls:                          82 cycles
   Executed Nodes:                  8233 cycles

********************************************************************************
   ========= Performance Analysis =================
   Setup Time:                      7978580472.000000ns
   Simulation Time:                 243143762970.000000ns
   System Clock:                    1.000000GHz
   Transistor Latency:              0ns
   Runtime:                         8316 cycles
   Runtime:                         0.000001 seconds
   Stalls:                          82 cycles
       Load Only:                   0 cycles
       Store Only:                  77 cycles
       Compute Only:                0 cycles
       Compute & Store:             5 cycles
       Load & Store:                0 cycles
       Load & Compute:              0 cycles
       Load & Compute & Store:      0 cycles
   Executed Nodes:                  8233 cycles
       Load Only:                   0 cycles
       Store Only:                  11 cycles
       Compute Only:                1827 cycles
       Compute & Store:             3453 cycles
       Load & Store:                0 cycles
       Load & Compute:              774 cycles
       Load & Compute & Store:      2168 cycles

   ========= Runtime FU's ========= (Max | Avg) ===
   Counter FU's:                      32 | 0.061572
   Integer Add/Sub FU's:               0 | 0.000000
   Integer Mul/Div FU's:               0 | 0.000000
   Integer Shifter FU's:               0 | 0.000000
   Integer Bitwise FU's:               1 | 0.000120
   Floating Point Float Add/Sub:      80 | 0.302014
   Floating Point Double Add/Sub:      0 | 0.000000
   Floating Point Float Mul/Div:      35 | 0.056511
   Floating Point Double Mul/Div:      0 | 0.000000
   0 Cycle Compare FU's:              15 | 0.024828
   GEP Instruction FU's:              64 | 0.061568
   Type Conversion FU's:              66 | 0.120964

   ========= Static FU's ==========================
   Counter FU's:                    0
   Integer Add/Sub FU's:            0
   Integer Mul/Div FU's:            0
   Integer Shifter FU's:            0
   Integer Bitwise FU's:            0
   Floating Point Float Add/Sub:    0
   Floating Point Double Add/Sub:   0
   Floating Point Float Mul/Div:    0
   Floating Point Double Mul/Div:   0
   0 Cycle Compare FU's:            0
   GEP Instruction FU's:            0
   Type Conversion FU's:            0
   Other:                           0

   ========= Pipeline Register Usage =============
   Total Number of Registers:       5641
   Max Register Usage Per Cycle:    126
   Avg Register Usage Per Cycle:    27.706590
   Avg Register Size (Bytes):       5.993295

   ========= Memory Configuration =================
   Cache Bus Ports:                 0
   Shared Cache Size:               0kB
   Local Bus Ports:                 0
   Private SPM Size:                256kB
   Private Read Ports:              0
   Private Write Ports:             0
   Private Read Bus Width:          64
   Private Write Bus Width:         64
       Memory Reads:                0
       Memory Writes:               0
   ========= Power Analysis ======================
   FU Leakage Power:                1.265749 mW 
   FU Dynamic Power:                1.166708 mW 
   FU Total Power:                  2.432457 mW 

   Registers Leakage Power:          0.011908 mW 
   Registers Dynamic Power:          0.045645 mW 
       Register Reads (Bits):        230408
       Register Writes (Bits):       231961
   Registers Total Power:            0.057553 mW

   SPM Leakage Power:               0.104100 mW
   SPM Read Dynamic Power:          4.599549 mW
   SPM Write Dynamic Power:         2.880682 mW
   SPM Total Power:                 7.584331 mW

   Cache Leakage Power:             0.000000 mW
   Cache Read Dynamic Power:        0.000000 mW
   Cache Write Dynamic Power:       0.000000 mW
   Cache Total Power:               0.000000 mW

   Accelerator Power:               2.490010 mW
   Accelerator Power (SPM):         10.074342 mW
   Accelerator Power (Cache):       2.490010 mW

   ========= Area Analysis =======================
   FU Area:                         170559.593750 um^2 (0.170560 mm^2)
   Register Area:                   967.909180 um^2 (0.000968 mm^2)
   SPM Area:                        2177.365505 um^2 (0.002177 mm^2)
   Cache Area:                      0.000000 um^2 (0.000000 mm^2)

   Accelerator Area:                171527.500000 um^2 (0.171527 mm^2)
   Accelerator Area (SPM):          173704.865505 um^2 (0.173705 mm^2)
   Accelerator Area (Cache):        171527.500000 um^2 (0.171527 mm^2)

   ========= SPM Resizing  =======================
   SPM Optimized Leakage Power:     0.003887 mW
   SPM Opt Area:                    172.850411 um^2

7518033750: system.acctest.grayscale0_dma: SRC:0x000000002500c020, DST:0x0000000082906bc0, LEN:65536
7518421875: global: Timer #0 stopped at tick 7518421875. Duration: 14993125
7518438125: global: Number of accelerators running = 3
7518558125: global: Timer #0 started at tick 7518558125
7519006875: global: Timer #2 started at tick 7519006875
7519453125: global: Timer #2 stopped at tick 7519453125. Duration: 446250
7519705625: global: DAG ID = 1
7519719375: global: Node ID = 7
7519732500: global: Node deadline difference = -2260
7519745000: global: Predicted memory time / byte = 0.000182088 us/byte
7519757500: global: Predicted memory time = 11.9333 us
7519770000: global: Predicted memory time / byte = 0.000182088 us/byte
7519782500: global: Predicted memory time = 11.9333 us
7519795000: global: Predicted memory time / byte = 0 us/byte
7519807500: global: Predicted memory time = 0 us
7519820000: global: Predicted memory time / byte = 0 us/byte
7519832500: global: Predicted memory time = 0 us
7519845000: global: Predicted memory access size = 0
7519857500: global: Predicted memory access size = 0
7519870000: global: Predicted memory access size = 0
7519882500: global: Predicted memory access size = 0
7524737750: system.acctest.grayscale0_dma: Transfer completed in 6.704 us
7533760875: system.acctest.elem_matrix0_dma: SRC:0x00000000821db280, DST:0x0000000024010020, LEN:65536
7533982500: global: Timer #0 stopped at tick 7533982500. Duration: 15424375
7533998750: global: Number of accelerators running = 3
7534276875: global: Timer #0 started at tick 7534276875
7534618750: global: Timer #1 started at tick 7534618750
7534812500: global: Timer #1 stopped at tick 7534812500. Duration: 193750
7535056875: global: DAG ID = 2
7535070625: global: Node ID = 1
7535088750: global: Node deadline difference = -13833
7535101250: global: Predicted memory time / byte = 0.000278397 us/byte
7535113750: global: Predicted memory time = 13.6838 us
7535126250: global: Predicted memory time / byte = 0.000278397 us/byte
7535138750: global: Predicted memory time = 18.245 us
7535151250: global: Predicted memory time / byte = 0.000182088 us/byte
7535163750: global: Predicted memory time = 8.95 us
7535176250: global: Predicted memory time / byte = 0.000246475 us/byte
7535188750: global: Predicted memory time = 16.153 us
7535201250: global: Predicted memory access size = 0
7535213750: global: Predicted memory access size = 49152
7535226250: global: Predicted memory access size = 0
7535238750: global: Predicted memory access size = 65536
7535370625: global: Timer #0 stopped at tick 7535370625. Duration: 1093750
7535386875: global: Number of accelerators running = 2
7545726875: system.acctest.elem_matrix0_dma: Transfer completed in 11.966 us
7545813125: global: Timer #0 started at tick 7545813125
7546316250: global: Timer #1 started at tick 7546316250
7546503750: global: Timer #1 stopped at tick 7546503750. Duration: 187500
7548277500: global: Timer #0 stopped at tick 7548277500. Duration: 2464375
7548336875: global: Number of accelerators running = 2
********************************************************************************
system.acctest.elem_matrix0.compute
   ========= Performance Analysis =============
   Setup Time:                      8.662444seconds
   Simulation Time:                 214.130686seconds
   System Clock:                    1.000000GHz
   Transistor Latency:              1ns
   Runtime:                         10932 cycles
   Runtime:                         10.932000 us
   Stalls:                          1 cycles
   Executed Nodes:                  10930 cycles

********************************************************************************
   ========= Performance Analysis =================
   Setup Time:                      8662443776.000000ns
   Simulation Time:                 214130685569.000000ns
   System Clock:                    1.000000GHz
   Transistor Latency:              0ns
   Runtime:                         10932 cycles
   Runtime:                         0.000001 seconds
   Stalls:                          1 cycles
       Load Only:                   0 cycles
       Store Only:                  1 cycles
       Compute Only:                0 cycles
       Compute & Store:             0 cycles
       Load & Store:                0 cycles
       Load & Compute:              0 cycles
       Load & Compute & Store:      0 cycles
   Executed Nodes:                  10930 cycles
       Load Only:                   0 cycles
       Store Only:                  4 cycles
       Compute Only:                1 cycles
       Compute & Store:             21 cycles
       Load & Store:                0 cycles
       Load & Compute:              6 cycles
       Load & Compute & Store:      10898 cycles

   ========= Runtime FU's ========= (Max | Avg) ===
   Counter FU's:                      32 | 0.046838
   Integer Add/Sub FU's:               0 | 0.000000
   Integer Mul/Div FU's:               0 | 0.000000
   Integer Shifter FU's:               0 | 0.000000
   Integer Bitwise FU's:               1 | 0.000091
   Floating Point Float Add/Sub:       0 | 0.000000
   Floating Point Double Add/Sub:      0 | 0.000000
   Floating Point Float Mul/Div:      34 | 0.044252
   Floating Point Double Mul/Div:      0 | 0.000000
   0 Cycle Compare FU's:             102 | 0.046945
   GEP Instruction FU's:              96 | 0.046835
   Type Conversion FU's:               7 | 0.006782

   ========= Static FU's ==========================
   Counter FU's:                    0
   Integer Add/Sub FU's:            0
   Integer Mul/Div FU's:            0
   Integer Shifter FU's:            0
   Integer Bitwise FU's:            0
   Floating Point Float Add/Sub:    0
   Floating Point Double Add/Sub:   0
   Floating Point Float Mul/Div:    0
   Floating Point Double Mul/Div:   0
   0 Cycle Compare FU's:            0
   GEP Instruction FU's:            0
   Type Conversion FU's:            0
   Other:                           0

   ========= Pipeline Register Usage =============
   Total Number of Registers:       5641
   Max Register Usage Per Cycle:    137
   Avg Register Usage Per Cycle:    12.130992
   Avg Register Size (Bytes):       5.980606

   ========= Memory Configuration =================
   Cache Bus Ports:                 0
   Shared Cache Size:               0kB
   Local Bus Ports:                 0
   Private SPM Size:                256kB
   Private Read Ports:              0
   Private Write Ports:             0
   Private Read Bus Width:          64
   Private Write Bus Width:         64
       Memory Reads:                0
       Memory Writes:               0
   ========= Power Analysis ======================
   FU Leakage Power:                0.045377 mW 
   FU Dynamic Power:                0.142576 mW 
   FU Total Power:                  0.187953 mW 

   Registers Leakage Power:          0.005281 mW 
   Registers Dynamic Power:          0.015326 mW 
       Register Reads (Bits):        132616
       Register Writes (Bits):       133658
   Registers Total Power:            0.020607 mW

   SPM Leakage Power:               0.104100 mW
   SPM Read Dynamic Power:          4.784107 mW
   SPM Write Dynamic Power:         3.448926 mW
   SPM Total Power:                 8.337133 mW

   Cache Leakage Power:             0.000000 mW
   Cache Read Dynamic Power:        0.000000 mW
   Cache Write Dynamic Power:       0.000000 mW
   Cache Total Power:               0.000000 mW

   Accelerator Power:               0.208559 mW
   Accelerator Power (SPM):         8.545693 mW
   Accelerator Power (Cache):       0.208559 mW

   ========= Area Analysis =======================
   FU Area:                         5472.068359 um^2 (0.005472 mm^2)
   Register Area:                   429.271088 um^2 (0.000429 mm^2)
   SPM Area:                        2177.365505 um^2 (0.002177 mm^2)
   Cache Area:                      0.000000 um^2 (0.000000 mm^2)

   Accelerator Area:                5901.339355 um^2 (0.005901 mm^2)
   Accelerator Area (SPM):          8078.704860 um^2 (0.008079 mm^2)
   Accelerator Area (Cache):        5901.339355 um^2 (0.005901 mm^2)

   ========= SPM Resizing  =======================
   SPM Optimized Leakage Power:     0.004248 mW
   SPM Opt Area:                    178.524902 um^2

7558997500: global: Timer #0 started at tick 7558997500
7559401875: global: Timer #2 started at tick 7559401875
7559726875: global: Timer #2 stopped at tick 7559726875. Duration: 325000
7559971875: global: DAG ID = 1
7559985625: global: Node ID = 8
7559998750: global: Node deadline difference = -2277
7560011250: global: Predicted memory time / byte = 0.000182088 us/byte
7560023750: global: Predicted memory time = 23.8667 us
7560036250: global: Predicted memory time / byte = 0.000182088 us/byte
7560048750: global: Predicted memory time = 11.9333 us
7560061250: global: Predicted memory time / byte = 0.00018399 us/byte
7560073750: global: Predicted memory time = 12.058 us
7560086250: global: Predicted memory time / byte = 0 us/byte
7560098750: global: Predicted memory time = 0 us
7560111250: global: Predicted memory access size = 0
7560123750: global: Predicted memory access size = 65536
7560136250: global: Predicted memory access size = 0
7560148750: global: Predicted memory access size = 0
7573536625: system.acctest.elem_matrix0_dma: SRC:0x00000000820db0c0, DST:0x0000000024000020, LEN:65536
7573739375: global: Timer #0 stopped at tick 7573739375. Duration: 14741875
7573755625: global: Number of accelerators running = 2
7585512625: system.acctest.elem_matrix0_dma: Transfer completed in 11.976 us
7585676250: global: Timer #0 started at tick 7585676250
7586091250: global: Timer #1 started at tick 7586091250
7586319375: global: Timer #1 stopped at tick 7586319375. Duration: 228125
7587971250: global: Timer #0 stopped at tick 7587971250. Duration: 2295000
7587987500: global: Number of accelerators running = 2
********************************************************************************
system.acctest.elem_matrix0.compute
   ========= Performance Analysis =============
   Setup Time:                      8.379479seconds
   Simulation Time:                 188.874844seconds
   System Clock:                    1.000000GHz
   Transistor Latency:              1ns
   Runtime:                         10932 cycles
   Runtime:                         10.932000 us
   Stalls:                          0 cycles
   Executed Nodes:                  10931 cycles

********************************************************************************
   ========= Performance Analysis =================
   Setup Time:                      8379479282.000000ns
   Simulation Time:                 188874844151.000000ns
   System Clock:                    1.000000GHz
   Transistor Latency:              0ns
   Runtime:                         10932 cycles
   Runtime:                         0.000001 seconds
   Stalls:                          0 cycles
       Load Only:                   0 cycles
       Store Only:                  0 cycles
       Compute Only:                0 cycles
       Compute & Store:             0 cycles
       Load & Store:                0 cycles
       Load & Compute:              0 cycles
       Load & Compute & Store:      0 cycles
   Executed Nodes:                  10931 cycles
       Load Only:                   0 cycles
       Store Only:                  5 cycles
       Compute Only:                1 cycles
       Compute & Store:             21 cycles
       Load & Store:                0 cycles
       Load & Compute:              7 cycles
       Load & Compute & Store:      10897 cycles

   ========= Runtime FU's ========= (Max | Avg) ===
   Counter FU's:                      32 | 0.046838
   Integer Add/Sub FU's:               0 | 0.000000
   Integer Mul/Div FU's:               0 | 0.000000
   Integer Shifter FU's:               0 | 0.000000
   Integer Bitwise FU's:               1 | 0.000091
   Floating Point Float Add/Sub:      34 | 0.044252
   Floating Point Double Add/Sub:      0 | 0.000000
   Floating Point Float Mul/Div:       0 | 0.000000
   Floating Point Double Mul/Div:      0 | 0.000000
   0 Cycle Compare FU's:             102 | 0.046974
   GEP Instruction FU's:              96 | 0.046835
   Type Conversion FU's:               7 | 0.006782

   ========= Static FU's ==========================
   Counter FU's:                    0
   Integer Add/Sub FU's:            0
   Integer Mul/Div FU's:            0
   Integer Shifter FU's:            0
   Integer Bitwise FU's:            0
   Floating Point Float Add/Sub:    0
   Floating Point Double Add/Sub:   0
   Floating Point Float Mul/Div:    0
   Floating Point Double Mul/Div:   0
   0 Cycle Compare FU's:            0
   GEP Instruction FU's:            0
   Type Conversion FU's:            0
   Other:                           0

   ========= Pipeline Register Usage =============
   Total Number of Registers:       5641
   Max Register Usage Per Cycle:    138
   Avg Register Usage Per Cycle:    12.130992
   Avg Register Size (Bytes):       5.980606

   ========= Memory Configuration =================
   Cache Bus Ports:                 0
   Shared Cache Size:               0kB
   Local Bus Ports:                 0
   Private SPM Size:                256kB
   Private Read Ports:              0
   Private Write Ports:             0
   Private Read Bus Width:          64
   Private Write Bus Width:         64
       Memory Reads:                0
       Memory Writes:               0
   ========= Power Analysis ======================
   FU Leakage Power:                0.519269 mW 
   FU Dynamic Power:                0.154621 mW 
   FU Total Power:                  0.673890 mW 

   Registers Leakage Power:          0.005281 mW 
   Registers Dynamic Power:          0.015326 mW 
       Register Reads (Bits):        132616
       Register Writes (Bits):       133658
   Registers Total Power:            0.020607 mW

   SPM Leakage Power:               0.104100 mW
   SPM Read Dynamic Power:          5.190014 mW
   SPM Write Dynamic Power:         3.846212 mW
   SPM Total Power:                 9.140327 mW

   Cache Leakage Power:             0.000000 mW
   Cache Read Dynamic Power:        0.000000 mW
   Cache Write Dynamic Power:       0.000000 mW
   Cache Total Power:               0.000000 mW

   Accelerator Power:               0.694497 mW
   Accelerator Power (SPM):         9.834824 mW
   Accelerator Power (Cache):       0.694497 mW

   ========= Area Analysis =======================
   FU Area:                         70212.562500 um^2 (0.070213 mm^2)
   Register Area:                   429.271088 um^2 (0.000429 mm^2)
   SPM Area:                        2177.365505 um^2 (0.002177 mm^2)
   Cache Area:                      0.000000 um^2 (0.000000 mm^2)

   Accelerator Area:                70641.835938 um^2 (0.070642 mm^2)
   Accelerator Area (SPM):          72819.201442 um^2 (0.072819 mm^2)
   Accelerator Area (Cache):        70641.835938 um^2 (0.070642 mm^2)

   ========= SPM Resizing  =======================
   SPM Optimized Leakage Power:     0.004248 mW
   SPM Opt Area:                    178.524902 um^2

7598742500: global: Timer #0 started at tick 7598742500
7599081875: global: Timer #2 started at tick 7599081875
7599386250: global: Timer #2 stopped at tick 7599386250. Duration: 304375
7612587375: system.acctest.elem_matrix0_dma: SRC:0x0000000024010020, DST:0x000000008217b0c0, LEN:65536
7612958125: global: Timer #0 stopped at tick 7612958125. Duration: 14215625
7612974375: global: Number of accelerators running = 2
7618873375: system.acctest.elem_matrix0_dma: Transfer completed in 6.286 us
7618949375: global: Timer #0 started at tick 7618949375
7619277500: global: Timer #1 started at tick 7619277500
7619339375: global: Timer #1 stopped at tick 7619339375. Duration: 61875
7619559375: global: DAG ID = 1
7619573125: global: Node ID = 9
7619591250: global: Node deadline difference = -2274
7619603750: global: Predicted memory time / byte = 0.00018399 us/byte
7619616250: global: Predicted memory time = 24.116 us
7619628750: global: Predicted memory time / byte = 0.00018399 us/byte
7619641250: global: Predicted memory time = 12.058 us
7619653750: global: Predicted memory time / byte = 0.00018396 us/byte
7619666250: global: Predicted memory time = 12.056 us
7619678750: global: Predicted memory time / byte = 9.57794e-05 us/byte
7619691250: global: Predicted memory time = 6.277 us
7619703750: global: Predicted memory access size = 0
7619716250: global: Predicted memory access size = 65536
7619728750: global: Predicted memory access size = 0
7619741250: global: Predicted memory access size = 65536
7633203750: system.acctest.elem_matrix0_dma: SRC:0x00000000821db280, DST:0x0000000024000020, LEN:65536
7633440000: global: Timer #0 stopped at tick 7633440000. Duration: 14490625
7633456250: global: Number of accelerators running = 2
7645175750: system.acctest.elem_matrix0_dma: Transfer completed in 11.972 us
7645294375: global: Timer #0 started at tick 7645294375
7645749375: global: Timer #1 started at tick 7645749375
7645978750: global: Timer #1 stopped at tick 7645978750. Duration: 229375
7659470875: system.acctest.elem_matrix0_dma: SRC:0x000000008207af40, DST:0x0000000024010020, LEN:65536
7659716250: global: Timer #0 stopped at tick 7659716250. Duration: 14421875
7659732500: global: Number of accelerators running = 2
7671432875: system.acctest.elem_matrix0_dma: Transfer completed in 11.962 us
7671509375: global: Timer #0 started at tick 7671509375
7671952500: global: Timer #1 started at tick 7671952500
7672181875: global: Timer #1 stopped at tick 7672181875. Duration: 229375
7673775625: global: Timer #0 stopped at tick 7673775625. Duration: 2266250
7673791875: global: Number of accelerators running = 2
********************************************************************************
system.acctest.elem_matrix0.compute
   ========= Performance Analysis =============
   Setup Time:                      6.469475seconds
   Simulation Time:                 167.587561seconds
   System Clock:                    1.000000GHz
   Transistor Latency:              1ns
   Runtime:                         10932 cycles
   Runtime:                         10.932000 us
   Stalls:                          1 cycles
   Executed Nodes:                  10930 cycles

********************************************************************************
   ========= Performance Analysis =================
   Setup Time:                      6469475014.000000ns
   Simulation Time:                 167587561415.000000ns
   System Clock:                    1.000000GHz
   Transistor Latency:              0ns
   Runtime:                         10932 cycles
   Runtime:                         0.000001 seconds
   Stalls:                          1 cycles
       Load Only:                   0 cycles
       Store Only:                  1 cycles
       Compute Only:                0 cycles
       Compute & Store:             0 cycles
       Load & Store:                0 cycles
       Load & Compute:              0 cycles
       Load & Compute & Store:      0 cycles
   Executed Nodes:                  10930 cycles
       Load Only:                   0 cycles
       Store Only:                  4 cycles
       Compute Only:                1 cycles
       Compute & Store:             21 cycles
       Load & Store:                0 cycles
       Load & Compute:              6 cycles
       Load & Compute & Store:      10898 cycles

   ========= Runtime FU's ========= (Max | Avg) ===
   Counter FU's:                      32 | 0.046838
   Integer Add/Sub FU's:               0 | 0.000000
   Integer Mul/Div FU's:               0 | 0.000000
   Integer Shifter FU's:               0 | 0.000000
   Integer Bitwise FU's:               1 | 0.000091
   Floating Point Float Add/Sub:       0 | 0.000000
   Floating Point Double Add/Sub:      0 | 0.000000
   Floating Point Float Mul/Div:      34 | 0.044252
   Floating Point Double Mul/Div:      0 | 0.000000
   0 Cycle Compare FU's:             102 | 0.046945
   GEP Instruction FU's:              96 | 0.046835
   Type Conversion FU's:               7 | 0.006782

   ========= Static FU's ==========================
   Counter FU's:                    0
   Integer Add/Sub FU's:            0
   Integer Mul/Div FU's:            0
   Integer Shifter FU's:            0
   Integer Bitwise FU's:            0
   Floating Point Float Add/Sub:    0
   Floating Point Double Add/Sub:   0
   Floating Point Float Mul/Div:    0
   Floating Point Double Mul/Div:   0
   0 Cycle Compare FU's:            0
   GEP Instruction FU's:            0
   Type Conversion FU's:            0
   Other:                           0

   ========= Pipeline Register Usage =============
   Total Number of Registers:       5641
   Max Register Usage Per Cycle:    137
   Avg Register Usage Per Cycle:    12.130992
   Avg Register Size (Bytes):       5.980606

   ========= Memory Configuration =================
   Cache Bus Ports:                 0
   Shared Cache Size:               0kB
   Local Bus Ports:                 0
   Private SPM Size:                256kB
   Private Read Ports:              0
   Private Write Ports:             0
   Private Read Bus Width:          64
   Private Write Bus Width:         64
       Memory Reads:                0
       Memory Writes:               0
   ========= Power Analysis ======================
   FU Leakage Power:                0.045377 mW 
   FU Dynamic Power:                0.142576 mW 
   FU Total Power:                  0.187953 mW 

   Registers Leakage Power:          0.005281 mW 
   Registers Dynamic Power:          0.015326 mW 
       Register Reads (Bits):        132616
       Register Writes (Bits):       133658
   Registers Total Power:            0.020607 mW

   SPM Leakage Power:               0.104100 mW
   SPM Read Dynamic Power:          5.599688 mW
   SPM Write Dynamic Power:         4.937352 mW
   SPM Total Power:                 10.641140 mW

   Cache Leakage Power:             0.000000 mW
   Cache Read Dynamic Power:        0.000000 mW
   Cache Write Dynamic Power:       0.000000 mW
   Cache Total Power:               0.000000 mW

   Accelerator Power:               0.208559 mW
   Accelerator Power (SPM):         10.849700 mW
   Accelerator Power (Cache):       0.208559 mW

[...]
   Floating Point Float Add/Sub:       0 | 0.000000
   Floating Point Double Add/Sub:      0 | 0.000000
   Floating Point Float Mul/Div:       0 | 0.000000
   Floating Point Double Mul/Div:      0 | 0.000000
   0 Cycle Compare FU's:             102 | 0.047066
   GEP Instruction FU's:              96 | 0.046784
   Type Conversion FU's:               7 | 0.006775

   ========= Static FU's ==========================
   Counter FU's:                    0
   Integer Add/Sub FU's:            0
   Integer Mul/Div FU's:            0
   Integer Shifter FU's:            0
   Integer Bitwise FU's:            0
   Floating Point Float Add/Sub:    0
   Floating Point Double Add/Sub:   0
   Floating Point Float Mul/Div:    0
   Floating Point Double Mul/Div:   0
   0 Cycle Compare FU's:            0
   GEP Instruction FU's:            0
   Type Conversion FU's:            0
   Other:                           0

   ========= Pipeline Register Usage =============
   Total Number of Registers:       5641
   Max Register Usage Per Cycle:    137
   Avg Register Usage Per Cycle:    12.117690
   Avg Register Size (Bytes):       5.980606

   ========= Memory Configuration =================
   Cache Bus Ports:                 0
   Shared Cache Size:               0kB
   Local Bus Ports:                 0
   Private SPM Size:                256kB
   Private Read Ports:              0
   Private Write Ports:             0
   Private Read Bus Width:          64
   Private Write Bus Width:         64
       Memory Reads:                0
       Memory Writes:               0
   ========= Power Analysis ======================
   FU Leakage Power:                0.000611 mW 
   FU Dynamic Power:                0.036818 mW 
   FU Total Power:                  0.037429 mW 

   Registers Leakage Power:          0.005281 mW 
   Registers Dynamic Power:          0.015342 mW 
       Register Reads (Bits):        132616
       Register Writes (Bits):       133658
   Registers Total Power:            0.020624 mW

   SPM Leakage Power:               0.104100 mW
   SPM Read Dynamic Power:          35.062177 mW
   SPM Write Dynamic Power:         26.556272 mW
   SPM Total Power:                 61.722549 mW

   Cache Leakage Power:             0.000000 mW
   Cache Read Dynamic Power:        0.000000 mW
   Cache Write Dynamic Power:       0.000000 mW
   Cache Total Power:               0.000000 mW

   Accelerator Power:               0.058053 mW
   Accelerator Power (SPM):         61.780602 mW
   Accelerator Power (Cache):       0.058053 mW

   ========= Area Analysis =======================
   FU Area:                         50.369961 um^2 (0.000050 mm^2)
   Register Area:                   429.271088 um^2 (0.000429 mm^2)
   SPM Area:                        2177.365505 um^2 (0.002177 mm^2)
   Cache Area:                      0.000000 um^2 (0.000000 mm^2)

   Accelerator Area:                479.641052 um^2 (0.000480 mm^2)
   Accelerator Area (SPM):          2657.006557 um^2 (0.002657 mm^2)
   Accelerator Area (Cache):        479.641052 um^2 (0.000480 mm^2)

   ========= SPM Resizing  =======================
   SPM Optimized Leakage Power:     0.004248 mW
   SPM Opt Area:                    178.524902 um^2

30333475000: global: Timer #0 started at tick 30333475000
30333766250: global: Timer #2 started at tick 30333766250
30334070625: global: Timer #2 stopped at tick 30334070625. Duration: 304375
30334313750: global: DAG ID = 0
30334327500: global: Node ID = 19
30334340625: global: Node deadline difference = 7996
30334353125: global: Predicted memory time / byte = 9.82819e-05 us/byte
30334365625: global: Predicted memory time = 12.882 us
30334378125: global: Predicted memory time / byte = 9.82819e-05 us/byte
30334390625: global: Predicted memory time = 6.441 us
30334403125: global: Predicted memory time / byte = 0.000172073 us/byte
30334415625: global: Predicted memory time = 22.554 us
30334428125: global: Predicted memory time / byte = 0 us/byte
30334440625: global: Predicted memory time = 0 us
30334453125: global: Predicted memory access size = 0
30334465625: global: Predicted memory access size = 131072
30334478125: global: Predicted memory access size = 0
30334490625: global: Predicted memory access size = 0
30335320875: system.acctest.convolution0_dma: SRC:0x0000000024020020, DST:0x0000000022000020, LEN:65536
30335575625: global: Timer #0 stopped at tick 30335575625. Duration: 2100625
30335591875: global: Number of accelerators running = 1
30345581875: system.acctest.convolution0_dma: Transfer completed in 10.261 us
30345758125: global: Timer #0 started at tick 30345758125
30346259375: global: Timer #1 started at tick 30346259375
30346441875: global: Timer #1 stopped at tick 30346441875. Duration: 182500
30347570875: system.acctest.convolution0_dma: SRC:0x0000000082018800, DST:0x0000000022030020, LEN:100
30347667875: system.acctest.convolution0_dma: Transfer completed in 0.097 us
30347836250: global: Timer #0 stopped at tick 30347836250. Duration: 2078125
30347852500: global: Number of accelerators running = 1
30348183750: global: Timer #0 started at tick 30348183750
30349988125: global: Timer #0 stopped at tick 30349988125. Duration: 1804375
30350004375: global: Number of accelerators running = 1
********************************************************************************
system.acctest.convolution0.compute
   ========= Performance Analysis =============
   Setup Time:                      0.370982seconds
   Simulation Time:                 194.672398seconds
   System Clock:                    1.000000GHz
   Transistor Latency:              1ns
   Runtime:                         1545605 cycles
   Runtime:                         1545.605000 us
   Stalls:                          0 cycles
   Executed Nodes:                  1545604 cycles

********************************************************************************
   ========= Performance Analysis =================
   Setup Time:                      370981659.000000ns
   Simulation Time:                 194672397726.000000ns
   System Clock:                    1.000000GHz
   Transistor Latency:              0ns
   Runtime:                         1545605 cycles
   Runtime:                         0.000155 seconds
   Stalls:                          0 cycles
       Load Only:                   0 cycles
       Store Only:                  0 cycles
       Compute Only:                0 cycles
       Compute & Store:             0 cycles
       Load & Store:                0 cycles
       Load & Compute:              0 cycles
       Load & Compute & Store:      0 cycles
   Executed Nodes:                  1545604 cycles
       Load Only:                   0 cycles
       Store Only:                  0 cycles
       Compute Only:                1127274 cycles
       Compute & Store:             16374 cycles
       Load & Store:                0 cycles
       Load & Compute:              401946 cycles
       Load & Compute & Store:      10 cycles

   ========= Runtime FU's ========= (Max | Avg) ===
   Counter FU's:                       3 | 0.112298
   Integer Add/Sub FU's:               4 | 0.211564
   Integer Mul/Div FU's:               1 | 0.052505
   Integer Shifter FU's:              10 | 0.005268
   Integer Bitwise FU's:               2 | 0.184266
   Floating Point Float Add/Sub:       5 | 0.207991
   Floating Point Double Add/Sub:      0 | 0.000000
   Floating Point Float Mul/Div:       2 | 0.130117
   Floating Point Double Mul/Div:      0 | 0.000000
   0 Cycle Compare FU's:              40 | 0.145956
   GEP Instruction FU's:               4 | 0.132683
   Type Conversion FU's:               7 | 0.186618

   ========= Static FU's ==========================
   Counter FU's:                    0
   Integer Add/Sub FU's:            0
   Integer Mul/Div FU's:            0
   Integer Shifter FU's:            0
   Integer Bitwise FU's:            0
   Floating Point Float Add/Sub:    0
   Floating Point Double Add/Sub:   0
   Floating Point Float Mul/Div:    0
   Floating Point Double Mul/Div:   0
   0 Cycle Compare FU's:            0
   GEP Instruction FU's:            0
   Type Conversion FU's:            0
   Other:                           0

   ========= Pipeline Register Usage =============
   Total Number of Registers:       1702
   Max Register Usage Per Cycle:    20
   Avg Register Usage Per Cycle:    6.348199
   Avg Register Size (Bytes):       5.569148

   ========= Memory Configuration =================
   Cache Bus Ports:                 0
   Shared Cache Size:               0kB
   Local Bus Ports:                 0
   Private SPM Size:                192kB
   Private Read Ports:              0
   Private Write Ports:             0
   Private Read Bus Width:          64
   Private Write Bus Width:         64
       Memory Reads:                0
       Memory Writes:               0
   ========= Power Analysis ======================
   FU Leakage Power:                0.196912 mW 
   FU Dynamic Power:                2743.028564 mW 
   FU Total Power:                  2743.225586 mW 

   Registers Leakage Power:          0.002459 mW 
   Registers Dynamic Power:          75.251152 mW 
       Register Reads (Bits):        9811808
       Register Writes (Bits):       10049727
   Registers Total Power:            75.253609 mW

   SPM Leakage Power:               0.078311 mW
   SPM Read Dynamic Power:          39.557522 mW
   SPM Write Dynamic Power:         6.188103 mW
   SPM Total Power:                 45.823935 mW

   Cache Leakage Power:             0.000000 mW
   Cache Read Dynamic Power:        0.000000 mW
   Cache Write Dynamic Power:       0.000000 mW
   Cache Total Power:               0.000000 mW

   Accelerator Power:               2818.479248 mW
   Accelerator Power (SPM):         2864.303183 mW
   Accelerator Power (Cache):       2818.479248 mW

   ========= Area Analysis =======================
   FU Area:                         22931.867188 um^2 (0.022932 mm^2)
   Register Area:                   199.868912 um^2 (0.000200 mm^2)
   SPM Area:                        1748.188735 um^2 (0.001748 mm^2)
   Cache Area:                      0.000000 um^2 (0.000000 mm^2)

   Accelerator Area:                23131.736328 um^2 (0.023132 mm^2)
   Accelerator Area (SPM):          24879.925063 um^2 (0.024880 mm^2)
   Accelerator Area (Cache):        23131.736328 um^2 (0.023132 mm^2)

   ========= SPM Resizing  =======================
   SPM Optimized Leakage Power:     0.002053 mW
   SPM Opt Area:                    145.024971 um^2

31895445000: global: Timer #0 started at tick 31895445000
31895683750: global: Timer #2 started at tick 31895683750
31896136250: global: Timer #2 stopped at tick 31896136250. Duration: 452500
31896390625: global: DAG ID = 0
31896404375: global: Node ID = 20
31896417500: global: Node deadline difference = 7981
31896430000: global: Predicted memory time / byte = 0.0001577 us/byte
31896442500: global: Predicted memory time = 10.3508 us
31896455000: global: Predicted memory time / byte = 0.0001577 us/byte
31896467500: global: Predicted memory time = 10.335 us
31896480000: global: Predicted memory time / byte = 0.000159241 us/byte
31896492500: global: Predicted memory time = 10.436 us
31896505000: global: Predicted memory time / byte = 0 us/byte
31896517500: global: Predicted memory time = 0 us
31896530000: global: Predicted memory access size = 0
31896542500: global: Predicted memory access size = 65636
31896555000: global: Predicted memory access size = 0
31896567500: global: Predicted memory access size = 0
31909955875: system.acctest.elem_matrix0_dma: SRC:0x0000000082048cc0, DST:0x0000000024000020, LEN:65536
31910163125: global: Timer #0 stopped at tick 31910163125. Duration: 14718125
31910179375: global: Number of accelerators running = 1
31922094875: system.acctest.elem_matrix0_dma: Transfer completed in 12.139 us
31922313750: global: Timer #0 started at tick 31922313750
31922798125: global: Timer #1 started at tick 31922798125
31923158750: global: Timer #1 stopped at tick 31923158750. Duration: 360625
31924198750: system.acctest.elem_matrix0_dma: SRC:0x0000000022010020, DST:0x0000000024010020, LEN:65536
31924430625: global: Timer #0 stopped at tick 31924430625. Duration: 2116875
31924446875: global: Number of accelerators running = 1
31934459750: system.acctest.elem_matrix0_dma: Transfer completed in 10.261 us
31934537500: global: Timer #0 started at tick 31934537500
31935028125: global: Timer #1 started at tick 31935028125
31935211875: global: Timer #1 stopped at tick 31935211875. Duration: 183750
31936831875: global: Timer #0 stopped at tick 31936831875. Duration: 2294375
31936848125: global: Number of accelerators running = 1
********************************************************************************
system.acctest.elem_matrix0.compute
   ========= Performance Analysis =============
   Setup Time:                      3.323986seconds
   Simulation Time:                 77.194437seconds
   System Clock:                    1.000000GHz
   Transistor Latency:              1ns
   Runtime:                         10932 cycles
   Runtime:                         10.932000 us
   Stalls:                          1 cycles
   Executed Nodes:                  10930 cycles

********************************************************************************
   ========= Performance Analysis =================
   Setup Time:                      3323985916.000000ns
   Simulation Time:                 77194436762.000000ns
   System Clock:                    1.000000GHz
   Transistor Latency:              0ns
   Runtime:                         10932 cycles
   Runtime:                         0.000001 seconds
   Stalls:                          1 cycles
       Load Only:                   0 cycles
       Store Only:                  1 cycles
       Compute Only:                0 cycles
       Compute & Store:             0 cycles
       Load & Store:                0 cycles
       Load & Compute:              0 cycles
       Load & Compute & Store:      0 cycles
   Executed Nodes:                  10930 cycles
       Load Only:                   0 cycles
       Store Only:                  4 cycles
       Compute Only:                1 cycles
       Compute & Store:             21 cycles
       Load & Store:                0 cycles
       Load & Compute:              6 cycles
       Load & Compute & Store:      10898 cycles

   ========= Runtime FU's ========= (Max | Avg) ===
   Counter FU's:                      32 | 0.046838
   Integer Add/Sub FU's:               0 | 0.000000
   Integer Mul/Div FU's:               0 | 0.000000
   Integer Shifter FU's:               0 | 0.000000
   Integer Bitwise FU's:               1 | 0.000091
   Floating Point Float Add/Sub:       0 | 0.000000
   Floating Point Double Add/Sub:      0 | 0.000000
   Floating Point Float Mul/Div:      34 | 0.044252
   Floating Point Double Mul/Div:      0 | 0.000000
   0 Cycle Compare FU's:             102 | 0.046945
   GEP Instruction FU's:              96 | 0.046835
   Type Conversion FU's:               7 | 0.006782

   ========= Static FU's ==========================
   Counter FU's:                    0
   Integer Add/Sub FU's:            0
   Integer Mul/Div FU's:            0
   Integer Shifter FU's:            0
   Integer Bitwise FU's:            0
   Floating Point Float Add/Sub:    0
   Floating Point Double Add/Sub:   0
   Floating Point Float Mul/Div:    0
   Floating Point Double Mul/Div:   0
   0 Cycle Compare FU's:            0
   GEP Instruction FU's:            0
   Type Conversion FU's:            0
   Other:                           0

   ========= Pipeline Register Usage =============
   Total Number of Registers:       5641
   Max Register Usage Per Cycle:    137
   Avg Register Usage Per Cycle:    12.130992
   Avg Register Size (Bytes):       5.980606

   ========= Memory Configuration =================
   Cache Bus Ports:                 0
   Shared Cache Size:               0kB
   Local Bus Ports:                 0
   Private SPM Size:                256kB
   Private Read Ports:              0
   Private Write Ports:             0
   Private Read Bus Width:          64
   Private Write Bus Width:         64
       Memory Reads:                0
       Memory Writes:               0
   ========= Power Analysis ======================
   FU Leakage Power:                0.045377 mW 
   FU Dynamic Power:                0.142576 mW 
   FU Total Power:                  0.187953 mW 

   Registers Leakage Power:          0.005281 mW 
   Registers Dynamic Power:          0.015326 mW 
       Register Reads (Bits):        132616
       Register Writes (Bits):       133658
   Registers Total Power:            0.020607 mW

   SPM Leakage Power:               0.104100 mW
   SPM Read Dynamic Power:          35.112242 mW
   SPM Write Dynamic Power:         26.607869 mW
   SPM Total Power:                 61.824211 mW

   Cache Leakage Power:             0.000000 mW
   Cache Read Dynamic Power:        0.000000 mW
   Cache Write Dynamic Power:       0.000000 mW
   Cache Total Power:               0.000000 mW

   Accelerator Power:               0.208559 mW
   Accelerator Power (SPM):         62.032770 mW
   Accelerator Power (Cache):       0.208559 mW

   ========= Area Analysis =======================
   FU Area:                         5472.068359 um^2 (0.005472 mm^2)
   Register Area:                   429.271088 um^2 (0.000429 mm^2)
   SPM Area:                        2177.365505 um^2 (0.002177 mm^2)
   Cache Area:                      0.000000 um^2 (0.000000 mm^2)

   Accelerator Area:                5901.339355 um^2 (0.005901 mm^2)
   Accelerator Area (SPM):          8078.704860 um^2 (0.008079 mm^2)
   Accelerator Area (Cache):        5901.339355 um^2 (0.005901 mm^2)

   ========= SPM Resizing  =======================
   SPM Optimized Leakage Power:     0.004248 mW
   SPM Opt Area:                    178.524902 um^2

31947603125: global: Timer #0 started at tick 31947603125
31960895875: system.acctest.elem_matrix0_dma: SRC:0x0000000024020020, DST:0x0000000082048cc0, LEN:65536
31961253125: global: Timer #0 stopped at tick 31961253125. Duration: 13650000
31961269375: global: Number of accelerators running = 1
31967183875: system.acctest.elem_matrix0_dma: Transfer completed in 6.288 us
31967260000: global: Timer #0 started at tick 31967260000
31967620625: global: Timer #1 started at tick 31967620625
31967720625: global: Timer #1 stopped at tick 31967720625. Duration: 100000
31967931875: global: DAG ID = 0
31967945625: global: Node ID = 21
31967969375: global: DAG execution time = 24662
31967982500: global: DAG deadline difference = 7995
31967999375: global: Node deadline difference = 7995
31968011875: global: Predicted memory time / byte = 0.000159241 us/byte
31968024375: global: Predicted memory time = 20.872 us
31968036875: global: Predicted memory time / byte = 0.000159241 us/byte
31968049375: global: Predicted memory time = 10.436 us
31968061875: global: Predicted memory time / byte = 0.000173111 us/byte
31968074375: global: Predicted memory time = 22.69 us
31968086875: global: Predicted memory time / byte = 9.64508e-05 us/byte
31968099375: global: Predicted memory time = 6.321 us
31968111875: global: Predicted memory access size = 0
31968124375: global: Predicted memory access size = 131072
31968136875: global: Predicted memory access size = 0
31968149375: global: Predicted memory access size = 65536
31968253125: global: Timer #0 stopped at tick 31968253125. Duration: 993125
31968269375: global: Number of accelerators running = 0
31968360000: global: Number of forwards = 32
31968639375: global: Number of colocations = 20
31968658750: global: Number of DAG deadlines met = 1
31968678125: global: Number of node deadlines met = 78
31968711875: global: Total predicted compute time = 24487 us
Exiting @ tick 31969046250 because m5_exit instruction encountered
