gem5 Simulator System.  http://gem5.org
gem5 is copyrighted software; use the --copyright option for details.

gem5 compiled Jun 12 2023 18:40:01
gem5 started Jul 14 2023 14:17:03
gem5 executing on node4x10a.cs.rochester.edu, pid 53416
command line: /u/sgupta45/gem5-SALAM/build/ARM/gem5_bus.opt --debug-flags=HWACC,CommInterface,LLVMInterface,StreamDma,NoncoherentDma,TickTimer,SchedulerStats --outdir=BM_ARM_OUT/comb_2/canny_1_deblur_0_gru_1_harris_0_lstm_0_LAX configs/SALAM/scheduler.py --mem-size=4GB --mem-type=LPDDR5_6400_1x16_BG_BL32 --kernel=/u/sgupta45/gem5-SALAM/benchmarks/scheduler/sw/bin_comb_2/canny_1_deblur_0_gru_1_harris_0_lstm_0_LAX.elf --vans-config-path=/u/sgupta45/VANS/config --disk-image=/u/sgupta45/gem5-SALAM/baremetal/common/fake.iso --machine-type=VExpress_GEM5_V1 --dtb-file=none --bare-metal --cpu-type=ex5_LITTLE --cpu-clock=1.6GHz --accpath=/u/sgupta45/gem5-SALAM/benchmarks --caches --cacheline_size=64 --l1d_size=32kB --l1d_assoc=4 --l1i_size=32kB --l1i_assoc=2

Global frequency set at 1000000000000 ticks per second
Cycle Counts Loaded!
Cycle Counts Loaded!
Cycle Counts Loaded!
Cycle Counts Loaded!
Cycle Counts Loaded!
Cycle Counts Loaded!
Cycle Counts Loaded!
Cycle Counts Loaded!
Cycle Counts Loaded!
Cycle Counts Loaded!
Cycle Counts Loaded!
**** REAL SIMULATION ****
3520570625: global: Timer #2 started at tick 3520570625
3521732500: global: Timer #2 stopped at tick 3521732500. Duration: 1161875
3525805625: global: Timer #2 started at tick 3525805625
3526240625: global: Timer #2 stopped at tick 3526240625. Duration: 435000
3569130875: system.acctest.elem_matrix0_dma: SRC:0x000000008222e400, DST:0x0000000024000020, LEN:65536
3574111625: system.acctest.isp0_dma: SRC:0x0000000082018d40, DST:0x0000000027000020, LEN:16900
3574502500: global: Number of accelerators running = 2
3579113625: system.acctest.isp0_dma: Transfer completed in 5.002 us
3580001875: global: Timer #0 started at tick 3580001875
3581427500: global: Timer #1 started at tick 3581427500
3582246875: global: Timer #1 stopped at tick 3582246875. Duration: 819375
3583154875: system.acctest.elem_matrix0_dma: Transfer completed in 14.024 us
3584215625: global: Timer #0 stopped at tick 3584215625. Duration: 4213750
3584277500: global: Number of accelerators running = 2
3584611250: global: Timer #0 started at tick 3584611250
3585282500: global: Timer #1 started at tick 3585282500
3585603750: global: Timer #1 stopped at tick 3585603750. Duration: 321250
3599917375: system.acctest.elem_matrix0_dma: SRC:0x000000008212e240, DST:0x0000000024010020, LEN:65536
3600216250: global: Timer #0 stopped at tick 3600216250. Duration: 15605000
3600232500: global: Number of accelerators running = 2
3611918375: system.acctest.elem_matrix0_dma: Transfer completed in 12.001 us
3612086250: global: Timer #0 started at tick 3612086250
3612620000: global: Timer #1 started at tick 3612620000
3612933750: global: Timer #1 stopped at tick 3612933750. Duration: 313750
3614530000: global: Timer #0 stopped at tick 3614530000. Duration: 2443750
3614546250: global: Number of accelerators running = 2
********************************************************************************
system.acctest.isp0.compute
   ========= Performance Analysis =============
   Setup Time:                      0.42124seconds
   Simulation Time:                 947.218seconds
   System Clock:                    1GHz
   Transistor Latency:              1ns
   Runtime:                         34882 cycles
   Runtime:                         34.882 us
   Stalls:                          1 cycles
   Executed Nodes:                  34880 cycles

********************************************************************************
   ========= Performance Analysis =================
   Setup Time:                      4.2124e+08ns
   Simulation Time:                 9.47218e+11ns
   System Clock:                    1GHz
   Transistor Latency:              0ns
   Runtime:                         34882 cycles
   Runtime:                         3.4882e-06 seconds
   Stalls:                          1 cycles
       Load Only:                   0 cycles
       Store Only:                  1 cycles
       Compute Only:                0 cycles
       Compute & Store:             0 cycles
       Load & Store:                0 cycles
       Load & Compute:              0 cycles
       Load & Compute & Store:      0 cycles
   Executed Nodes:                  34880 cycles
       Load Only:                   0 cycles
       Store Only:                  1 cycles
       Compute Only:                3453 cycles
       Compute & Store:             19014 cycles
       Load & Store:                0 cycles
       Load & Compute:              2467 cycles
       Load & Compute & Store:      9945 cycles

   ========= Runtime FU's ========= (Max | Avg) ===
   Counter FU's:                      10 | 0.118075
   Integer Add/Sub FU's:              76 | 0.082082
   Integer Mul/Div FU's:              11 | 0.043888
   Integer Shifter FU's:              42 | 0.055974
   Integer Bitwise FU's:               4 | 0.059443
   Floating Point Float Add/Sub:      53 | 0.116839
   Floating Point Double Add/Sub:      0 | 0.000000
   Floating Point Float Mul/Div:      76 | 0.625626
   Floating Point Double Mul/Div:      0 | 0.000000
   0 Cycle Compare FU's:              85 | 0.664984
   GEP Instruction FU's:              33 | 0.117424
   Type Conversion FU's:             110 | 0.379700

   ========= Static FU's ==========================
   Counter FU's:                    0
   Integer Add/Sub FU's:            0
   Integer Mul/Div FU's:            0
   Integer Shifter FU's:            0
   Integer Bitwise FU's:            0
   Floating Point Float Add/Sub:    0
   Floating Point Double Add/Sub:   0
   Floating Point Float Mul/Div:    0
   Floating Point Double Mul/Div:   0
   0 Cycle Compare FU's:            0
   GEP Instruction FU's:            0
   Type Conversion FU's:            0
   Other:                           0

   ========= Pipeline Register Usage =============
   Total Number of Registers:       1620
   Max Register Usage Per Cycle:    151
   Avg Register Usage Per Cycle:    58.744711
   Avg Register Size (Bytes):       5.073357

   ========= Memory Configuration =================
   Cache Bus Ports:                 0
   Shared Cache Size:               0kB
   Local Bus Ports:                 0
   Private SPM Size:                112kB
   Private Read Ports:              0
   Private Write Ports:             0
   Private Read Bus Width:          64
   Private Write Bus Width:         64
       Memory Reads:                0
       Memory Writes:               0
   ========= Power Analysis ======================
   FU Leakage Power:                1.637787 mW 
   FU Dynamic Power:                9.655087 mW 
   FU Total Power:                  11.292874 mW 

   Registers Leakage Power:          0.021654 mW 
   Registers Dynamic Power:          3.085961 mW 
       Register Reads (Bits):        2049133
       Register Writes (Bits):       2049168
   Registers Total Power:            3.107615 mW

   SPM Leakage Power:               0.061081 mW
   SPM Read Dynamic Power:          11.103730 mW
   SPM Write Dynamic Power:         7.385230 mW
   SPM Total Power:                 18.550041 mW

   Cache Leakage Power:             0.000000 mW
   Cache Read Dynamic Power:        0.000000 mW
   Cache Write Dynamic Power:       0.000000 mW
   Cache Total Power:               0.000000 mW

   Accelerator Power:               14.400490 mW
   Accelerator Power (SPM):         32.950531 mW
   Accelerator Power (Cache):       14.400490 mW

   ========= Area Analysis =======================
   FU Area:                         176023.796875 um^2 (0.176024 mm^2)
   Register Area:                   1760.064941 um^2 (0.001760 mm^2)
   SPM Area:                        2165.394891 um^2 (0.002165 mm^2)
   Cache Area:                      0.000000 um^2 (0.000000 mm^2)

   Accelerator Area:                177783.859375 um^2 (0.177784 mm^2)
   Accelerator Area (SPM):          179949.254266 um^2 (0.179949 mm^2)
   Accelerator Area (Cache):        177783.859375 um^2 (0.177784 mm^2)

   ========= SPM Resizing  =======================
   SPM Optimized Leakage Power:     0.005964 mW
   SPM Opt Area:                    422.108128 um^2

3618590625: global: Timer #0 started at tick 3618590625
3619105625: global: Timer #2 started at tick 3619105625
3619974375: global: Timer #2 stopped at tick 3619974375. Duration: 868750
3620743125: global: DAG ID = 0
3620762500: global: Node ID = 0
3620780625: global: Node deadline difference = -13498
3620842500: global: Predicted memory time / byte = 7.27596e-05 us/byte
3620860625: global: Predicted memory time = 1.22964 us
3620878750: global: Predicted memory time / byte = 7.27596e-05 us/byte
3620896875: global: Predicted memory time = 3.57628 us
3620915000: global: Predicted memory time / byte = 0.000353787 us/byte
3620976250: global: Predicted memory time = 5.979 us
3620994375: global: Predicted memory time / byte = 0 us/byte
3621012500: global: Predicted memory time = 0 us
3621030625: global: Predicted memory access size = 0
3621048750: global: Predicted memory access size = 16900
3621111250: global: Predicted memory access size = 0
3621130000: global: Predicted memory access size = 0
3622313750: system.acctest.grayscale0_dma: SRC:0x0000000027004224, DST:0x0000000025000020, LEN:49152
3622770625: global: Timer #0 stopped at tick 3622770625. Duration: 4180000
3622786875: global: Number of accelerators running = 2
********************************************************************************
system.acctest.elem_matrix0.compute
   ========= Performance Analysis =============
   Setup Time:                      7.012631seconds
   Simulation Time:                 404.568395seconds
   System Clock:                    1.000000GHz
   Transistor Latency:              1ns
   Runtime:                         10932 cycles
   Runtime:                         10.932000 us
   Stalls:                          0 cycles
   Executed Nodes:                  10931 cycles

********************************************************************************
   ========= Performance Analysis =================
   Setup Time:                      7012630679.000000ns
   Simulation Time:                 404568395076.000000ns
   System Clock:                    1.000000GHz
   Transistor Latency:              0ns
   Runtime:                         10932 cycles
   Runtime:                         0.000001 seconds
   Stalls:                          0 cycles
       Load Only:                   0 cycles
       Store Only:                  0 cycles
       Compute Only:                0 cycles
       Compute & Store:             0 cycles
       Load & Store:                0 cycles
       Load & Compute:              0 cycles
       Load & Compute & Store:      0 cycles
   Executed Nodes:                  10931 cycles
       Load Only:                   0 cycles
       Store Only:                  5 cycles
       Compute Only:                1 cycles
       Compute & Store:             21 cycles
       Load & Store:                0 cycles
       Load & Compute:              7 cycles
       Load & Compute & Store:      10897 cycles

   ========= Runtime FU's ========= (Max | Avg) ===
   Counter FU's:                      32 | 0.046838
   Integer Add/Sub FU's:               0 | 0.000000
   Integer Mul/Div FU's:               0 | 0.000000
   Integer Shifter FU's:               0 | 0.000000
   Integer Bitwise FU's:               1 | 0.000091
   Floating Point Float Add/Sub:      34 | 0.044252
   Floating Point Double Add/Sub:      0 | 0.000000
   Floating Point Float Mul/Div:       0 | 0.000000
   Floating Point Double Mul/Div:      0 | 0.000000
   0 Cycle Compare FU's:             102 | 0.046974
   GEP Instruction FU's:              96 | 0.046835
   Type Conversion FU's:               7 | 0.006782

   ========= Static FU's ==========================
   Counter FU's:                    0
   Integer Add/Sub FU's:            0
   Integer Mul/Div FU's:            0
   Integer Shifter FU's:            0
   Integer Bitwise FU's:            0
   Floating Point Float Add/Sub:    0
   Floating Point Double Add/Sub:   0
   Floating Point Float Mul/Div:    0
   Floating Point Double Mul/Div:   0
   0 Cycle Compare FU's:            0
   GEP Instruction FU's:            0
   Type Conversion FU's:            0
   Other:                           0

   ========= Pipeline Register Usage =============
   Total Number of Registers:       5641
   Max Register Usage Per Cycle:    138
   Avg Register Usage Per Cycle:    12.130992
   Avg Register Size (Bytes):       5.980606

   ========= Memory Configuration =================
   Cache Bus Ports:                 0
   Shared Cache Size:               0kB
   Local Bus Ports:                 0
   Private SPM Size:                256kB
   Private Read Ports:              0
   Private Write Ports:             0
   Private Read Bus Width:          64
   Private Write Bus Width:         64
       Memory Reads:                0
       Memory Writes:               0
   ========= Power Analysis ======================
   FU Leakage Power:                0.519269 mW 
   FU Dynamic Power:                0.154621 mW 
   FU Total Power:                  0.673890 mW 

   Registers Leakage Power:          0.005281 mW 
   Registers Dynamic Power:          0.015326 mW 
       Register Reads (Bits):        132616
       Register Writes (Bits):       133658
   Registers Total Power:            0.020607 mW

   SPM Leakage Power:               0.104100 mW
   SPM Read Dynamic Power:          1.997266 mW
   SPM Write Dynamic Power:         0.953321 mW
   SPM Total Power:                 3.054688 mW

   Cache Leakage Power:             0.000000 mW
   Cache Read Dynamic Power:        0.000000 mW
   Cache Write Dynamic Power:       0.000000 mW
   Cache Total Power:               0.000000 mW

   Accelerator Power:               0.694497 mW
   Accelerator Power (SPM):         3.749184 mW
   Accelerator Power (Cache):       0.694497 mW

   ========= Area Analysis =======================
   FU Area:                         70212.562500 um^2 (0.070213 mm^2)
   Register Area:                   429.271088 um^2 (0.000429 mm^2)
   SPM Area:                        2177.365505 um^2 (0.002177 mm^2)
   Cache Area:                      0.000000 um^2 (0.000000 mm^2)

   Accelerator Area:                70641.835938 um^2 (0.070642 mm^2)
   Accelerator Area (SPM):          72819.201442 um^2 (0.072819 mm^2)
   Accelerator Area (Cache):        70641.835938 um^2 (0.070642 mm^2)

   ========= SPM Resizing  =======================
   SPM Optimized Leakage Power:     0.004248 mW
   SPM Opt Area:                    178.524902 um^2

3625290625: global: Timer #0 started at tick 3625290625
3625596875: global: Timer #2 started at tick 3625596875
3625920625: global: Timer #2 stopped at tick 3625920625. Duration: 323750
3626166875: global: Timer #2 started at tick 3626166875
3626593750: global: Timer #2 stopped at tick 3626593750. Duration: 426875
3630016750: system.acctest.grayscale0_dma: Transfer completed in 7.703 us
3640093750: system.acctest.elem_matrix0_dma: SRC:0x0000000024020020, DST:0x000000008213e240, LEN:65536
3640538125: global: Timer #0 stopped at tick 3640538125. Duration: 15247500
3640554375: global: Number of accelerators running = 2
3640722500: global: Timer #0 started at tick 3640722500
3641230625: global: Timer #1 started at tick 3641230625
3641552500: global: Timer #1 stopped at tick 3641552500. Duration: 321875
3642929375: global: Timer #0 stopped at tick 3642929375. Duration: 2206875
3643031875: global: Number of accelerators running = 2
3646440750: system.acctest.elem_matrix0_dma: Transfer completed in 6.347 us
3646581875: global: Timer #0 started at tick 3646581875
3647175625: global: Timer #1 started at tick 3647175625
3647518125: global: Timer #1 stopped at tick 3647518125. Duration: 342500
3648023125: global: DAG ID = 1
3648087500: global: Node ID = 0
3648162500: global: Node deadline difference = -2228
3648180625: global: Predicted memory time / byte = 7.27596e-05 us/byte
3648198750: global: Predicted memory time = 9.53674 us
3648218750: global: Predicted memory time / byte = 7.27596e-05 us/byte
3648236875: global: Predicted memory time = 4.76837 us
3648255000: global: Predicted memory time / byte = 0.000211205 us/byte
3648273125: global: Predicted memory time = 27.683 us
3648291250: global: Predicted memory time / byte = 0.000100342 us/byte
3648309375: global: Predicted memory time = 6.576 us
3648329375: global: Predicted memory access size = 0
3648347500: global: Predicted memory access size = 131072
3648365625: global: Predicted memory access size = 0
3648383750: global: Predicted memory access size = 65536
********************************************************************************
system.acctest.grayscale0.compute
   ========= Performance Analysis =============
   Setup Time:                      0.024379seconds
   Simulation Time:                 273.378517seconds
   System Clock:                    1.000000GHz
   Transistor Latency:              1ns
   Runtime:                         10263 cycles
   Runtime:                         10.263000 us
   Stalls:                          1 cycles
   Executed Nodes:                  10261 cycles

********************************************************************************
   ========= Performance Analysis =================
   Setup Time:                      24378883.000000ns
   Simulation Time:                 273378516819.000031ns
   System Clock:                    1.000000GHz
   Transistor Latency:              0ns
   Runtime:                         10263 cycles
   Runtime:                         0.000001 seconds
   Stalls:                          1 cycles
       Load Only:                   0 cycles
       Store Only:                  1 cycles
       Compute Only:                0 cycles
       Compute & Store:             0 cycles
       Load & Store:                0 cycles
       Load & Compute:              0 cycles
       Load & Compute & Store:      0 cycles
   Executed Nodes:                  10261 cycles
       Load Only:                   0 cycles
       Store Only:                  1 cycles
       Compute Only:                88 cycles
       Compute & Store:             344 cycles
       Load & Store:                0 cycles
       Load & Compute:              1981 cycles
       Load & Compute & Store:      7847 cycles

   ========= Runtime FU's ========= (Max | Avg) ===
   Counter FU's:                      24 | 0.199556
   Integer Add/Sub FU's:               0 | 0.000000
   Integer Mul/Div FU's:               8 | 0.199552
   Integer Shifter FU's:               0 | 0.000000
   Integer Bitwise FU's:               1 | 0.000097
   Floating Point Float Add/Sub:      49 | 0.114264
   Floating Point Double Add/Sub:      0 | 0.000000
   Floating Point Float Mul/Div:      42 | 0.114129
   Floating Point Double Mul/Div:      0 | 0.000000
   0 Cycle Compare FU's:               9 | 0.066626
   GEP Instruction FU's:              36 | 0.177452
   Type Conversion FU's:              76 | 0.401969

   ========= Static FU's ==========================
   Counter FU's:                    0
   Integer Add/Sub FU's:            0
   Integer Mul/Div FU's:            0
   Integer Shifter FU's:            0
   Integer Bitwise FU's:            0
   Floating Point Float Add/Sub:    0
   Floating Point Double Add/Sub:   0
   Floating Point Float Mul/Div:    0
   Floating Point Double Mul/Div:   0
   0 Cycle Compare FU's:            0
   GEP Instruction FU's:            0
   Type Conversion FU's:            0
   Other:                           0

   ========= Pipeline Register Usage =============
   Total Number of Registers:       235
   Max Register Usage Per Cycle:    90
   Avg Register Usage Per Cycle:    33.924291
   Avg Register Size (Bytes):       5.841147

   ========= Memory Configuration =================
   Cache Bus Ports:                 0
   Shared Cache Size:               0kB
   Local Bus Ports:                 0
   Private SPM Size:                176kB
   Private Read Ports:              0
   Private Write Ports:             0
   Private Read Bus Width:          64
   Private Write Bus Width:         64
       Memory Reads:                0
       Memory Writes:               0
   ========= Power Analysis ======================
   FU Leakage Power:                1.178269 mW 
   FU Dynamic Power:                0.617392 mW 
   FU Total Power:                  1.795662 mW 

   Registers Leakage Power:          0.014185 mW 
   Registers Dynamic Power:          0.101057 mW 
       Register Reads (Bits):        348165
       Register Writes (Bits):       348168
   Registers Total Power:            0.115242 mW

   SPM Leakage Power:               0.089881 mW
   SPM Read Dynamic Power:          6.997296 mW
   SPM Write Dynamic Power:         2.062375 mW
   SPM Total Power:                 9.149552 mW

   Cache Leakage Power:             0.000000 mW
   Cache Read Dynamic Power:        0.000000 mW
   Cache Write Dynamic Power:       0.000000 mW
   Cache Total Power:               0.000000 mW

   Accelerator Power:               1.910904 mW
   Accelerator Power (SPM):         11.060456 mW
   Accelerator Power (Cache):       1.910904 mW

   ========= Area Analysis =======================
   FU Area:                         143348.187500 um^2 (0.143348 mm^2)
   Register Area:                   1152.968140 um^2 (0.001153 mm^2)
   SPM Area:                        3573.642862 um^2 (0.003574 mm^2)
   Cache Area:                      0.000000 um^2 (0.000000 mm^2)

   Accelerator Area:                144501.156250 um^2 (0.144501 mm^2)
   Accelerator Area (SPM):          148074.799112 um^2 (0.148075 mm^2)
   Accelerator Area (Cache):        144501.156250 um^2 (0.144501 mm^2)

   ========= SPM Resizing  =======================
   SPM Optimized Leakage Power:     0.003633 mW
   SPM Opt Area:                    364.024374 um^2

3662095875: system.acctest.elem_matrix0_dma: SRC:0x00000000820ee0c0, DST:0x0000000024000020, LEN:65536
3662307500: global: Timer #0 stopped at tick 3662307500. Duration: 15725625
3662323750: global: Number of accelerators running = 2
3662565000: global: Timer #0 started at tick 3662565000
3662888750: global: Timer #2 started at tick 3662888750
3663558750: global: Timer #2 stopped at tick 3663558750. Duration: 670000
3663820000: global: DAG ID = 0
3663833750: global: Node ID = 1
3663846875: global: Node deadline difference = -13492
3663859375: global: Predicted memory time / byte = 0.000185638 us/byte
3663871875: global: Predicted memory time = 9.1245 us
3663884375: global: Predicted memory time / byte = 0.000185638 us/byte
3663896875: global: Predicted memory time = 12.166 us
3663909375: global: Predicted memory time / byte = 0.000373555 us/byte
3663921875: global: Predicted memory time = 18.361 us
3663934375: global: Predicted memory time / byte = 0 us/byte
3663946875: global: Predicted memory time = 0 us
3663959375: global: Predicted memory access size = 0
3663971875: global: Predicted memory access size = 49152
3663984375: global: Predicted memory access size = 0
3663996875: global: Predicted memory access size = 0
3665441000: system.acctest.convolution0_dma: SRC:0x000000002500c020, DST:0x0000000022000020, LEN:65536
3665873750: global: Timer #0 stopped at tick 3665873750. Duration: 3308750
3665890000: global: Number of accelerators running = 2
3674223875: system.acctest.elem_matrix0_dma: Transfer completed in 12.128 us
3674440625: global: Timer #0 started at tick 3674440625
3674929375: global: Timer #1 started at tick 3674929375
3675216875: global: Timer #1 stopped at tick 3675216875. Duration: 287500
3677272500: global: Timer #0 stopped at tick 3677272500. Duration: 2831875
3677331875: global: Number of accelerators running = 2
3679463000: system.acctest.convolution0_dma: Transfer completed in 14.022 us
3679559375: global: Timer #0 started at tick 3679559375
3680094375: global: Timer #1 started at tick 3680094375
3680286875: global: Timer #1 stopped at tick 3680286875. Duration: 192500
3681784500: system.acctest.convolution0_dma: SRC:0x0000000082039280, DST:0x0000000022030020, LEN:100
3681880500: system.acctest.convolution0_dma: Transfer completed in 0.096 us
3682062500: global: Timer #0 stopped at tick 3682062500. Duration: 2503125
3682078750: global: Number of accelerators running = 2
3682420625: global: Timer #0 started at tick 3682420625
3684300000: global: Timer #0 stopped at tick 3684300000. Duration: 1879375
3684316250: global: Number of accelerators running = 2
********************************************************************************
system.acctest.elem_matrix0.compute
   ========= Performance Analysis =============
   Setup Time:                      17.672235seconds
   Simulation Time:                 250.023545seconds
   System Clock:                    1.000000GHz
   Transistor Latency:              1ns
   Runtime:                         10932 cycles
   Runtime:                         10.932000 us
   Stalls:                          1 cycles
   Executed Nodes:                  10930 cycles

********************************************************************************
   ========= Performance Analysis =================
   Setup Time:                      17672234807.000000ns
   Simulation Time:                 250023544967.000000ns
   System Clock:                    1.000000GHz
   Transistor Latency:              0ns
   Runtime:                         10932 cycles
   Runtime:                         0.000001 seconds
   Stalls:                          1 cycles
       Load Only:                   0 cycles
       Store Only:                  1 cycles
       Compute Only:                0 cycles
       Compute & Store:             0 cycles
       Load & Store:                0 cycles
       Load & Compute:              0 cycles
       Load & Compute & Store:      0 cycles
   Executed Nodes:                  10930 cycles
       Load Only:                   0 cycles
       Store Only:                  4 cycles
       Compute Only:                1 cycles
       Compute & Store:             21 cycles
       Load & Store:                0 cycles
       Load & Compute:              6 cycles
       Load & Compute & Store:      10898 cycles

   ========= Runtime FU's ========= (Max | Avg) ===
   Counter FU's:                      32 | 0.046838
   Integer Add/Sub FU's:               0 | 0.000000
   Integer Mul/Div FU's:               0 | 0.000000
   Integer Shifter FU's:               0 | 0.000000
   Integer Bitwise FU's:               1 | 0.000091
   Floating Point Float Add/Sub:       0 | 0.000000
   Floating Point Double Add/Sub:      0 | 0.000000
   Floating Point Float Mul/Div:      34 | 0.044252
   Floating Point Double Mul/Div:      0 | 0.000000
   0 Cycle Compare FU's:             102 | 0.046945
   GEP Instruction FU's:              96 | 0.046835
   Type Conversion FU's:               7 | 0.006782

   ========= Static FU's ==========================
   Counter FU's:                    0
   Integer Add/Sub FU's:            0
   Integer Mul/Div FU's:            0
   Integer Shifter FU's:            0
   Integer Bitwise FU's:            0
   Floating Point Float Add/Sub:    0
   Floating Point Double Add/Sub:   0
   Floating Point Float Mul/Div:    0
   Floating Point Double Mul/Div:   0
   0 Cycle Compare FU's:            0
   GEP Instruction FU's:            0
   Type Conversion FU's:            0
   Other:                           0

   ========= Pipeline Register Usage =============
   Total Number of Registers:       5641
   Max Register Usage Per Cycle:    137
   Avg Register Usage Per Cycle:    12.130992
   Avg Register Size (Bytes):       5.980606

   ========= Memory Configuration =================
   Cache Bus Ports:                 0
   Shared Cache Size:               0kB
   Local Bus Ports:                 0
   Private SPM Size:                256kB
   Private Read Ports:              0
   Private Write Ports:             0
   Private Read Bus Width:          64
   Private Write Bus Width:         64
       Memory Reads:                0
       Memory Writes:               0
   ========= Power Analysis ======================
   FU Leakage Power:                0.045377 mW 
   FU Dynamic Power:                0.142576 mW 
   FU Total Power:                  0.187953 mW 

   Registers Leakage Power:          0.005281 mW 
   Registers Dynamic Power:          0.015326 mW 
       Register Reads (Bits):        132616
       Register Writes (Bits):       133658
   Registers Total Power:            0.020607 mW

   SPM Leakage Power:               0.104100 mW
   SPM Read Dynamic Power:          2.785289 mW
   SPM Write Dynamic Power:         2.044305 mW
   SPM Total Power:                 4.933694 mW

   Cache Leakage Power:             0.000000 mW
   Cache Read Dynamic Power:        0.000000 mW
   Cache Write Dynamic Power:       0.000000 mW
   Cache Total Power:               0.000000 mW

   Accelerator Power:               0.208559 mW
   Accelerator Power (SPM):         5.142254 mW
   Accelerator Power (Cache):       0.208559 mW

   ========= Area Analysis =======================
   FU Area:                         5472.068359 um^2 (0.005472 mm^2)
   Register Area:                   429.271088 um^2 (0.000429 mm^2)
   SPM Area:                        2177.365505 um^2 (0.002177 mm^2)
   Cache Area:                      0.000000 um^2 (0.000000 mm^2)

   Accelerator Area:                5901.339355 um^2 (0.005901 mm^2)
   Accelerator Area (SPM):          8078.704860 um^2 (0.008079 mm^2)
   Accelerator Area (Cache):        5901.339355 um^2 (0.005901 mm^2)

   ========= SPM Resizing  =======================
   SPM Optimized Leakage Power:     0.004248 mW
   SPM Opt Area:                    178.524902 um^2

3687968750: global: Timer #0 started at tick 3687968750
3688203125: global: Timer #2 started at tick 3688203125
3688812500: global: Timer #2 stopped at tick 3688812500. Duration: 609375
3689063750: global: DAG ID = 1
3689077500: global: Node ID = 5
3689090625: global: Node deadline difference = -2243
3689103125: global: Predicted memory time / byte = 0.000185638 us/byte
3689115625: global: Predicted memory time = 24.332 us
3689128125: global: Predicted memory time / byte = 0.000185638 us/byte
3689140625: global: Predicted memory time = 12.166 us
3689153125: global: Predicted memory time / byte = 0.000188416 us/byte
3689165625: global: Predicted memory time = 12.348 us
3689178125: global: Predicted memory time / byte = 0 us/byte
3689190625: global: Predicted memory time = 0 us
3689203125: global: Predicted memory access size = 0
3689215625: global: Predicted memory access size = 65536
3689228125: global: Predicted memory access size = 0
3689240625: global: Predicted memory access size = 0
3702778750: system.acctest.elem_matrix0_dma: SRC:0x00000000820fe0c0, DST:0x0000000024000020, LEN:65536
3702981250: global: Timer #0 stopped at tick 3702981250. Duration: 15012500
3702997500: global: Number of accelerators running = 2
3714740750: system.acctest.elem_matrix0_dma: Transfer completed in 11.962 us
3714915000: global: Timer #0 started at tick 3714915000
3715328750: global: Timer #1 started at tick 3715328750
3715736875: global: Timer #1 stopped at tick 3715736875. Duration: 408125
3717331875: global: Timer #0 stopped at tick 3717331875. Duration: 2416875
3717348125: global: Number of accelerators running = 2
********************************************************************************
system.acctest.elem_matrix0.compute
   ========= Performance Analysis =============
   Setup Time:                      11.430833seconds
   Simulation Time:                 245.469776seconds
   System Clock:                    1.000000GHz
   Transistor Latency:              1ns
   Runtime:                         10932 cycles
   Runtime:                         10.932000 us
   Stalls:                          0 cycles
   Executed Nodes:                  10931 cycles

********************************************************************************
   ========= Performance Analysis =================
   Setup Time:                      11430832771.000000ns
   Simulation Time:                 245469775504.000000ns
   System Clock:                    1.000000GHz
   Transistor Latency:              0ns
   Runtime:                         10932 cycles
   Runtime:                         0.000001 seconds
   Stalls:                          0 cycles
       Load Only:                   0 cycles
       Store Only:                  0 cycles
       Compute Only:                0 cycles
       Compute & Store:             0 cycles
       Load & Store:                0 cycles
       Load & Compute:              0 cycles
       Load & Compute & Store:      0 cycles
   Executed Nodes:                  10931 cycles
       Load Only:                   0 cycles
       Store Only:                  5 cycles
       Compute Only:                1 cycles
       Compute & Store:             21 cycles
       Load & Store:                0 cycles
       Load & Compute:              7 cycles
       Load & Compute & Store:      10897 cycles

   ========= Runtime FU's ========= (Max | Avg) ===
   Counter FU's:                      32 | 0.046838
   Integer Add/Sub FU's:               0 | 0.000000
   Integer Mul/Div FU's:               0 | 0.000000
   Integer Shifter FU's:               0 | 0.000000
   Integer Bitwise FU's:               1 | 0.000091
   Floating Point Float Add/Sub:      34 | 0.044252
   Floating Point Double Add/Sub:      0 | 0.000000
   Floating Point Float Mul/Div:       0 | 0.000000
   Floating Point Double Mul/Div:      0 | 0.000000
   0 Cycle Compare FU's:             102 | 0.046974
   GEP Instruction FU's:              96 | 0.046835
   Type Conversion FU's:               7 | 0.006782

   ========= Static FU's ==========================
   Counter FU's:                    0
   Integer Add/Sub FU's:            0
   Integer Mul/Div FU's:            0
   Integer Shifter FU's:            0
   Integer Bitwise FU's:            0
   Floating Point Float Add/Sub:    0
   Floating Point Double Add/Sub:   0
   Floating Point Float Mul/Div:    0
   Floating Point Double Mul/Div:   0
   0 Cycle Compare FU's:            0
   GEP Instruction FU's:            0
   Type Conversion FU's:            0
   Other:                           0

   ========= Pipeline Register Usage =============
   Total Number of Registers:       5641
   Max Register Usage Per Cycle:    138
   Avg Register Usage Per Cycle:    12.130992
   Avg Register Size (Bytes):       5.980606

   ========= Memory Configuration =================
   Cache Bus Ports:                 0
   Shared Cache Size:               0kB
   Local Bus Ports:                 0
   Private SPM Size:                256kB
   Private Read Ports:              0
   Private Write Ports:             0
   Private Read Bus Width:          64
   Private Write Bus Width:         64
       Memory Reads:                0
       Memory Writes:               0
   ========= Power Analysis ======================
   FU Leakage Power:                0.519269 mW 
   FU Dynamic Power:                0.154621 mW 
   FU Total Power:                  0.673890 mW 

   Registers Leakage Power:          0.005281 mW 
   Registers Dynamic Power:          0.015326 mW 
       Register Reads (Bits):        132616
       Register Writes (Bits):       133658
   Registers Total Power:            0.020607 mW

   SPM Leakage Power:               0.104100 mW
   SPM Read Dynamic Power:          3.776796 mW
   SPM Write Dynamic Power:         2.457440 mW
   SPM Total Power:                 6.338336 mW

   Cache Leakage Power:             0.000000 mW
   Cache Read Dynamic Power:        0.000000 mW
   Cache Write Dynamic Power:       0.000000 mW
   Cache Total Power:               0.000000 mW

   Accelerator Power:               0.694497 mW
   Accelerator Power (SPM):         7.032833 mW
   Accelerator Power (Cache):       0.694497 mW

   ========= Area Analysis =======================
   FU Area:                         70212.562500 um^2 (0.070213 mm^2)
   Register Area:                   429.271088 um^2 (0.000429 mm^2)
   SPM Area:                        2177.365505 um^2 (0.002177 mm^2)
   Cache Area:                      0.000000 um^2 (0.000000 mm^2)

   Accelerator Area:                70641.835938 um^2 (0.070642 mm^2)
   Accelerator Area (SPM):          72819.201442 um^2 (0.072819 mm^2)
   Accelerator Area (Cache):        70641.835938 um^2 (0.070642 mm^2)

   ========= SPM Resizing  =======================
   SPM Optimized Leakage Power:     0.004248 mW
   SPM Opt Area:                    178.524902 um^2

3728094375: global: Timer #0 started at tick 3728094375
3728358125: global: Timer #2 started at tick 3728358125
3728756875: global: Timer #2 stopped at tick 3728756875. Duration: 398750
3729005000: global: DAG ID = 1
3729018750: global: Node ID = 6
3729031875: global: Node deadline difference = -2261
3729044375: global: Predicted memory time / byte = 0.000215454 us/byte
3729056875: global: Predicted memory time = 28.24 us
3729069375: global: Predicted memory time / byte = 0.000215454 us/byte
3729081875: global: Predicted memory time = 14.12 us
3729094375: global: Predicted memory time / byte = 0.000184601 us/byte
3729106875: global: Predicted memory time = 12.098 us
3729119375: global: Predicted memory time / byte = 0 us/byte
3729131875: global: Predicted memory time = 0 us
3729144375: global: Predicted memory access size = 0
3729156875: global: Predicted memory access size = 65536
3729169375: global: Predicted memory access size = 0
3729181875: global: Predicted memory access size = 0
3730596250: global: Timer #0 stopped at tick 3730596250. Duration: 2501875
3730612500: global: Number of accelerators running = 2
********************************************************************************
system.acctest.elem_matrix0.compute
   ========= Performance Analysis =============
   Setup Time:                      12.369658seconds
   Simulation Time:                 165.115673seconds
   System Clock:                    1.000000GHz
   Transistor Latency:              1ns
   Runtime:                         8316 cycles
   Runtime:                         8.316000 us
   Stalls:                          82 cycles
   Executed Nodes:                  8233 cycles

********************************************************************************
   ========= Performance Analysis =================
   Setup Time:                      12369658312.000000ns
   Simulation Time:                 165115672514.000000ns
   System Clock:                    1.000000GHz
   Transistor Latency:              0ns
   Runtime:                         8316 cycles
   Runtime:                         0.000001 seconds
   Stalls:                          82 cycles
       Load Only:                   0 cycles
       Store Only:                  77 cycles
       Compute Only:                0 cycles
       Compute & Store:             5 cycles
       Load & Store:                0 cycles
       Load & Compute:              0 cycles
       Load & Compute & Store:      0 cycles
   Executed Nodes:                  8233 cycles
       Load Only:                   0 cycles
       Store Only:                  11 cycles
       Compute Only:                1827 cycles
       Compute & Store:             3453 cycles
       Load & Store:                0 cycles
       Load & Compute:              774 cycles
       Load & Compute & Store:      2168 cycles

   ========= Runtime FU's ========= (Max | Avg) ===
   Counter FU's:                      32 | 0.061572
   Integer Add/Sub FU's:               0 | 0.000000
   Integer Mul/Div FU's:               0 | 0.000000
   Integer Shifter FU's:               0 | 0.000000
   Integer Bitwise FU's:               1 | 0.000120
   Floating Point Float Add/Sub:      80 | 0.302014
   Floating Point Double Add/Sub:      0 | 0.000000
   Floating Point Float Mul/Div:      35 | 0.056511
   Floating Point Double Mul/Div:      0 | 0.000000
   0 Cycle Compare FU's:              15 | 0.024828
   GEP Instruction FU's:              64 | 0.061568
   Type Conversion FU's:              66 | 0.120964

   ========= Static FU's ==========================
   Counter FU's:                    0
   Integer Add/Sub FU's:            0
   Integer Mul/Div FU's:            0
   Integer Shifter FU's:            0
   Integer Bitwise FU's:            0
   Floating Point Float Add/Sub:    0
   Floating Point Double Add/Sub:   0
   Floating Point Float Mul/Div:    0
   Floating Point Double Mul/Div:   0
   0 Cycle Compare FU's:            0
   GEP Instruction FU's:            0
   Type Conversion FU's:            0
   Other:                           0

   ========= Pipeline Register Usage =============
   Total Number of Registers:       5641
   Max Register Usage Per Cycle:    126
   Avg Register Usage Per Cycle:    27.706590
   Avg Register Size (Bytes):       5.993295

   ========= Memory Configuration =================
   Cache Bus Ports:                 0
   Shared Cache Size:               0kB
   Local Bus Ports:                 0
   Private SPM Size:                256kB
   Private Read Ports:              0
   Private Write Ports:             0
   Private Read Bus Width:          64
   Private Write Bus Width:         64
       Memory Reads:                0
       Memory Writes:               0
   ========= Power Analysis ======================
   FU Leakage Power:                1.265749 mW 
   FU Dynamic Power:                1.166708 mW 
   FU Total Power:                  2.432457 mW 

   Registers Leakage Power:          0.011908 mW 
   Registers Dynamic Power:          0.045645 mW 
       Register Reads (Bits):        230408
       Register Writes (Bits):       231961
   Registers Total Power:            0.057553 mW

   SPM Leakage Power:               0.104100 mW
   SPM Read Dynamic Power:          4.599549 mW
   SPM Write Dynamic Power:         2.880682 mW
   SPM Total Power:                 7.584331 mW

   Cache Leakage Power:             0.000000 mW
   Cache Read Dynamic Power:        0.000000 mW
   Cache Write Dynamic Power:       0.000000 mW
   Cache Total Power:               0.000000 mW

   Accelerator Power:               2.490010 mW
   Accelerator Power (SPM):         10.074342 mW
   Accelerator Power (Cache):       2.490010 mW

   ========= Area Analysis =======================
   FU Area:                         170559.593750 um^2 (0.170560 mm^2)
   Register Area:                   967.909180 um^2 (0.000968 mm^2)
   SPM Area:                        2177.365505 um^2 (0.002177 mm^2)
   Cache Area:                      0.000000 um^2 (0.000000 mm^2)

   Accelerator Area:                171527.500000 um^2 (0.171527 mm^2)
   Accelerator Area (SPM):          173704.865505 um^2 (0.173705 mm^2)
   Accelerator Area (Cache):        171527.500000 um^2 (0.171527 mm^2)

   ========= SPM Resizing  =======================
   SPM Optimized Leakage Power:     0.003887 mW
   SPM Opt Area:                    172.850411 um^2

3738858125: global: Timer #0 started at tick 3738858125
3739146250: global: Timer #2 started at tick 3739146250
3739537500: global: Timer #2 stopped at tick 3739537500. Duration: 391250
3739778750: global: DAG ID = 1
3739792500: global: Node ID = 7
3739805625: global: Node deadline difference = -2289
3739818125: global: Predicted memory time / byte = 0.000184601 us/byte
3739830625: global: Predicted memory time = 12.098 us
3739843125: global: Predicted memory time / byte = 0.000184601 us/byte
3739855625: global: Predicted memory time = 12.098 us
3739868125: global: Predicted memory time / byte = 0 us/byte
3739880625: global: Predicted memory time = 0 us
3739893125: global: Predicted memory time / byte = 0 us/byte
3739905625: global: Predicted memory time = 0 us
3739918125: global: Predicted memory access size = 0
3739930625: global: Predicted memory access size = 0
3739943125: global: Predicted memory access size = 0
3739955625: global: Predicted memory access size = 0
3753418750: system.acctest.elem_matrix0_dma: SRC:0x000000008222e400, DST:0x0000000024010020, LEN:65536
3753624375: global: Timer #0 stopped at tick 3753624375. Duration: 14766250
3753640625: global: Number of accelerators running = 2
3765349750: system.acctest.elem_matrix0_dma: Transfer completed in 11.931 us
3765513125: global: Timer #0 started at tick 3765513125
3765914375: global: Timer #1 started at tick 3765914375
3766143750: global: Timer #1 stopped at tick 3766143750. Duration: 229375
3767679375: global: Timer #0 stopped at tick 3767679375. Duration: 2166250
3767695625: global: Number of accelerators running = 2
********************************************************************************
system.acctest.elem_matrix0.compute
   ========= Performance Analysis =============
   Setup Time:                      7.209479seconds
   Simulation Time:                 234.057057seconds
   System Clock:                    1.000000GHz
   Transistor Latency:              1ns
   Runtime:                         10932 cycles
   Runtime:                         10.932000 us
   Stalls:                          1 cycles
   Executed Nodes:                  10930 cycles

********************************************************************************
   ========= Performance Analysis =================
   Setup Time:                      7209478783.000000ns
   Simulation Time:                 234057056692.000000ns
   System Clock:                    1.000000GHz
   Transistor Latency:              0ns
   Runtime:                         10932 cycles
   Runtime:                         0.000001 seconds
   Stalls:                          1 cycles
       Load Only:                   0 cycles
       Store Only:                  1 cycles
       Compute Only:                0 cycles
       Compute & Store:             0 cycles
       Load & Store:                0 cycles
       Load & Compute:              0 cycles
       Load & Compute & Store:      0 cycles
   Executed Nodes:                  10930 cycles
       Load Only:                   0 cycles
       Store Only:                  4 cycles
       Compute Only:                1 cycles
       Compute & Store:             21 cycles
       Load & Store:                0 cycles
       Load & Compute:              6 cycles
       Load & Compute & Store:      10898 cycles

   ========= Runtime FU's ========= (Max | Avg) ===
   Counter FU's:                      32 | 0.046838
   Integer Add/Sub FU's:               0 | 0.000000
   Integer Mul/Div FU's:               0 | 0.000000
   Integer Shifter FU's:               0 | 0.000000
   Integer Bitwise FU's:               1 | 0.000091
   Floating Point Float Add/Sub:       0 | 0.000000
   Floating Point Double Add/Sub:      0 | 0.000000
   Floating Point Float Mul/Div:      34 | 0.044252
   Floating Point Double Mul/Div:      0 | 0.000000
   0 Cycle Compare FU's:             102 | 0.046945
   GEP Instruction FU's:              96 | 0.046835
   Type Conversion FU's:               7 | 0.006782

   ========= Static FU's ==========================
   Counter FU's:                    0
   Integer Add/Sub FU's:            0
   Integer Mul/Div FU's:            0
   Integer Shifter FU's:            0
   Integer Bitwise FU's:            0
   Floating Point Float Add/Sub:    0
   Floating Point Double Add/Sub:   0
   Floating Point Float Mul/Div:    0
   Floating Point Double Mul/Div:   0
   0 Cycle Compare FU's:            0
   GEP Instruction FU's:            0
   Type Conversion FU's:            0
   Other:                           0

   ========= Pipeline Register Usage =============
   Total Number of Registers:       5641
   Max Register Usage Per Cycle:    137
   Avg Register Usage Per Cycle:    12.130992
   Avg Register Size (Bytes):       5.980606

   ========= Memory Configuration =================
   Cache Bus Ports:                 0
   Shared Cache Size:               0kB
   Local Bus Ports:                 0
   Private SPM Size:                256kB
   Private Read Ports:              0
   Private Write Ports:             0
   Private Read Bus Width:          64
   Private Write Bus Width:         64
       Memory Reads:                0
       Memory Writes:               0
   ========= Power Analysis ======================
   FU Leakage Power:                0.045377 mW 
   FU Dynamic Power:                0.142576 mW 
   FU Total Power:                  0.187953 mW 

   Registers Leakage Power:          0.005281 mW 
   Registers Dynamic Power:          0.015326 mW 
       Register Reads (Bits):        132616
       Register Writes (Bits):       133658
   Registers Total Power:            0.020607 mW

   SPM Leakage Power:               0.104100 mW
   SPM Read Dynamic Power:          4.784107 mW
   SPM Write Dynamic Power:         3.448926 mW
   SPM Total Power:                 8.337133 mW

   Cache Leakage Power:             0.000000 mW
   Cache Read Dynamic Power:        0.000000 mW
   Cache Write Dynamic Power:       0.000000 mW
   Cache Total Power:               0.000000 mW

   Accelerator Power:               0.208559 mW
   Accelerator Power (SPM):         8.545693 mW
   Accelerator Power (Cache):       0.208559 mW

   ========= Area Analysis =======================
   FU Area:                         5472.068359 um^2 (0.005472 mm^2)
   Register Area:                   429.271088 um^2 (0.000429 mm^2)
   SPM Area:                        2177.365505 um^2 (0.002177 mm^2)
   Cache Area:                      0.000000 um^2 (0.000000 mm^2)

   Accelerator Area:                5901.339355 um^2 (0.005901 mm^2)
   Accelerator Area (SPM):          8078.704860 um^2 (0.008079 mm^2)
   Accelerator Area (Cache):        5901.339355 um^2 (0.005901 mm^2)

   ========= SPM Resizing  =======================
   SPM Optimized Leakage Power:     0.004248 mW
   SPM Opt Area:                    178.524902 um^2

3778437500: global: Timer #0 started at tick 3778437500
3778811875: global: Timer #2 started at tick 3778811875
3779141875: global: Timer #2 stopped at tick 3779141875. Duration: 330000
3779375625: global: DAG ID = 1
3779389375: global: Node ID = 8
3779402500: global: Node deadline difference = -2306
3779415000: global: Predicted memory time / byte = 0.000184601 us/byte
3779427500: global: Predicted memory time = 24.196 us
3779440000: global: Predicted memory time / byte = 0.000184601 us/byte
3779452500: global: Predicted memory time = 12.098 us
3779465000: global: Predicted memory time / byte = 0.000183243 us/byte
3779477500: global: Predicted memory time = 12.009 us
3779490000: global: Predicted memory time / byte = 0 us/byte
3779502500: global: Predicted memory time = 0 us
3779515000: global: Predicted memory access size = 0
3779527500: global: Predicted memory access size = 65536
3779540000: global: Predicted memory access size = 0
3779552500: global: Predicted memory access size = 0
3792935875: system.acctest.elem_matrix0_dma: SRC:0x000000008212e240, DST:0x0000000024000020, LEN:65536
3793138125: global: Timer #0 stopped at tick 3793138125. Duration: 14700625
3793154375: global: Number of accelerators running = 2
3804901875: system.acctest.elem_matrix0_dma: Transfer completed in 11.966 us
3805064375: global: Timer #0 started at tick 3805064375
3805521250: global: Timer #1 started at tick 3805521250
3805749375: global: Timer #1 stopped at tick 3805749375. Duration: 228125
3807272500: global: Timer #0 stopped at tick 3807272500. Duration: 2208125
3807288750: global: Number of accelerators running = 2
********************************************************************************
system.acctest.elem_matrix0.compute
   ========= Performance Analysis =============
   Setup Time:                      8.392782seconds
   Simulation Time:                 242.841821seconds
   System Clock:                    1.000000GHz
   Transistor Latency:              1ns
   Runtime:                         10932 cycles
   Runtime:                         10.932000 us
   Stalls:                          0 cycles
   Executed Nodes:                  10931 cycles

********************************************************************************
   ========= Performance Analysis =================
   Setup Time:                      8392782486.000000ns
   Simulation Time:                 242841820530.000000ns
   System Clock:                    1.000000GHz
   Transistor Latency:              0ns
   Runtime:                         10932 cycles
   Runtime:                         0.000001 seconds
   Stalls:                          0 cycles
       Load Only:                   0 cycles
       Store Only:                  0 cycles
       Compute Only:                0 cycles
       Compute & Store:             0 cycles
       Load & Store:                0 cycles
       Load & Compute:              0 cycles
       Load & Compute & Store:      0 cycles
   Executed Nodes:                  10931 cycles
       Load Only:                   0 cycles
       Store Only:                  5 cycles
       Compute Only:                1 cycles
       Compute & Store:             21 cycles
       Load & Store:                0 cycles
       Load & Compute:              7 cycles
       Load & Compute & Store:      10897 cycles

   ========= Runtime FU's ========= (Max | Avg) ===
   Counter FU's:                      32 | 0.046838
   Integer Add/Sub FU's:               0 | 0.000000
   Integer Mul/Div FU's:               0 | 0.000000
   Integer Shifter FU's:               0 | 0.000000
   Integer Bitwise FU's:               1 | 0.000091
   Floating Point Float Add/Sub:      34 | 0.044252
   Floating Point Double Add/Sub:      0 | 0.000000
   Floating Point Float Mul/Div:       0 | 0.000000
   Floating Point Double Mul/Div:      0 | 0.000000
   0 Cycle Compare FU's:             102 | 0.046974
   GEP Instruction FU's:              96 | 0.046835
   Type Conversion FU's:               7 | 0.006782

   ========= Static FU's ==========================
   Counter FU's:                    0
   Integer Add/Sub FU's:            0
   Integer Mul/Div FU's:            0
   Integer Shifter FU's:            0
   Integer Bitwise FU's:            0
   Floating Point Float Add/Sub:    0
   Floating Point Double Add/Sub:   0
   Floating Point Float Mul/Div:    0
   Floating Point Double Mul/Div:   0
   0 Cycle Compare FU's:            0
   GEP Instruction FU's:            0
   Type Conversion FU's:            0
   Other:                           0

   ========= Pipeline Register Usage =============
   Total Number of Registers:       5641
   Max Register Usage Per Cycle:    138
   Avg Register Usage Per Cycle:    12.130992
   Avg Register Size (Bytes):       5.980606

   ========= Memory Configuration =================
   Cache Bus Ports:                 0
   Shared Cache Size:               0kB
   Local Bus Ports:                 0
   Private SPM Size:                256kB
   Private Read Ports:              0
   Private Write Ports:             0
   Private Read Bus Width:          64
   Private Write Bus Width:         64
       Memory Reads:                0
       Memory Writes:               0
   ========= Power Analysis ======================
   FU Leakage Power:                0.519269 mW 
   FU Dynamic Power:                0.154621 mW 
   FU Total Power:                  0.673890 mW 

   Registers Leakage Power:          0.005281 mW 
   Registers Dynamic Power:          0.015326 mW 
       Register Reads (Bits):        132616
       Register Writes (Bits):       133658
   Registers Total Power:            0.020607 mW

   SPM Leakage Power:               0.104100 mW
   SPM Read Dynamic Power:          5.190014 mW
   SPM Write Dynamic Power:         3.846212 mW
   SPM Total Power:                 9.140327 mW

   Cache Leakage Power:             0.000000 mW
   Cache Read Dynamic Power:        0.000000 mW
   Cache Write Dynamic Power:       0.000000 mW
   Cache Total Power:               0.000000 mW

   Accelerator Power:               0.694497 mW
   Accelerator Power (SPM):         9.834824 mW
   Accelerator Power (Cache):       0.694497 mW

   ========= Area Analysis =======================
   FU Area:                         70212.562500 um^2 (0.070213 mm^2)
   Register Area:                   429.271088 um^2 (0.000429 mm^2)
   SPM Area:                        2177.365505 um^2 (0.002177 mm^2)
   Cache Area:                      0.000000 um^2 (0.000000 mm^2)

   Accelerator Area:                70641.835938 um^2 (0.070642 mm^2)
   Accelerator Area (SPM):          72819.201442 um^2 (0.072819 mm^2)
   Accelerator Area (Cache):        70641.835938 um^2 (0.070642 mm^2)

   ========= SPM Resizing  =======================
   SPM Optimized Leakage Power:     0.004248 mW
   SPM Opt Area:                    178.524902 um^2

3818042500: global: Timer #0 started at tick 3818042500
3818199375: global: Timer #2 started at tick 3818199375
3818486250: global: Timer #2 stopped at tick 3818486250. Duration: 286875
3831699500: system.acctest.elem_matrix0_dma: SRC:0x0000000024010020, DST:0x00000000821ce240, LEN:65536
3832070625: global: Timer #0 stopped at tick 3832070625. Duration: 14028125
3832086875: global: Number of accelerators running = 2
3837992500: system.acctest.elem_matrix0_dma: Transfer completed in 6.293 us
3838068125: global: Timer #0 started at tick 3838068125
3838396250: global: Timer #1 started at tick 3838396250
3838463750: global: Timer #1 stopped at tick 3838463750. Duration: 67500
3838694375: global: DAG ID = 1
3838708125: global: Node ID = 9
3838726250: global: Node deadline difference = -2304
3838738750: global: Predicted memory time / byte = 0.000183243 us/byte
3838751250: global: Predicted memory time = 24.018 us
3838763750: global: Predicted memory time / byte = 0.000183243 us/byte
3838776250: global: Predicted memory time = 12.009 us
3838788750: global: Predicted memory time / byte = 0.000184448 us/byte
3838801250: global: Predicted memory time = 12.088 us
3838813750: global: Predicted memory time / byte = 9.58862e-05 us/byte
3838826250: global: Predicted memory time = 6.284 us
3838838750: global: Predicted memory access size = 0
3838851250: global: Predicted memory access size = 65536
3838863750: global: Predicted memory access size = 0
3838876250: global: Predicted memory access size = 65536
3852324500: system.acctest.elem_matrix0_dma: SRC:0x000000008222e400, DST:0x0000000024000020, LEN:65536
3852528750: global: Timer #0 stopped at tick 3852528750. Duration: 14460625
3852545000: global: Number of accelerators running = 2
3864311500: system.acctest.elem_matrix0_dma: Transfer completed in 11.987 us
3864430000: global: Timer #0 started at tick 3864430000
3864876250: global: Timer #1 started at tick 3864876250
3865104375: global: Timer #1 stopped at tick 3865104375. Duration: 228125
3878595875: system.acctest.elem_matrix0_dma: SRC:0x00000000820ce0c0, DST:0x0000000024010020, LEN:65536
3878828125: global: Timer #0 stopped at tick 3878828125. Duration: 14398125
3878844375: global: Number of accelerators running = 2
3890543875: system.acctest.elem_matrix0_dma: Transfer completed in 11.948 us
3890620000: global: Timer #0 started at tick 3890620000
3891116250: global: Timer #1 started at tick 3891116250
3891298750: global: Timer #1 stopped at tick 3891298750. Duration: 182500
3892886250: global: Timer #0 stopped at tick 3892886250. Duration: 2266250
3892902500: global: Number of accelerators running = 2
********************************************************************************
system.acctest.elem_matrix0.compute
   ========= Performance Analysis =============
   Setup Time:                      8.198017seconds
   Simulation Time:                 243.206325seconds
   System Clock:                    1.000000GHz
   Transistor Latency:              1ns
   Runtime:                         10932 cycles
   Runtime:                         10.932000 us
   Stalls:                          1 cycles
   Executed Nodes:                  10930 cycles

********************************************************************************
   ========= Performance Analysis =================
   Setup Time:                      8198017074.999999ns
   Simulation Time:                 243206325024.000000ns
   System Clock:                    1.000000GHz
   Transistor Latency:              0ns
   Runtime:                         10932 cycles
   Runtime:                         0.000001 seconds
   Stalls:                          1 cycles
       Load Only:                   0 cycles
       Store Only:                  1 cycles
       Compute Only:                0 cycles
       Compute & Store:             0 cycles
       Load & Store:                0 cycles
       Load & Compute:              0 cycles
       Load & Compute & Store:      0 cycles
   Executed Nodes:                  10930 cycles
       Load Only:                   0 cycles
       Store Only:                  4 cycles
       Compute Only:                1 cycles
       Compute & Store:             21 cycles
       Load & Store:                0 cycles
       Load & Compute:              6 cycles
       Load & Compute & Store:      10898 cycles

   ========= Runtime FU's ========= (Max | Avg) ===
   Counter FU's:                      32 | 0.046838
   Integer Add/Sub FU's:               0 | 0.000000
   Integer Mul/Div FU's:               0 | 0.000000
   Integer Shifter FU's:               0 | 0.000000
   Integer Bitwise FU's:               1 | 0.000091
   Floating Point Float Add/Sub:       0 | 0.000000
   Floating Point Double Add/Sub:      0 | 0.000000
   Floating Point Float Mul/Div:      34 | 0.044252
   Floating Point Double Mul/Div:      0 | 0.000000
   0 Cycle Compare FU's:             102 | 0.046945
   GEP Instruction FU's:              96 | 0.046835
   Type Conversion FU's:               7 | 0.006782

   ========= Static FU's ==========================
   Counter FU's:                    0
   Integer Add/Sub FU's:            0
   Integer Mul/Div FU's:            0
   Integer Shifter FU's:            0
   Integer Bitwise FU's:            0
   Floating Point Float Add/Sub:    0
   Floating Point Double Add/Sub:   0
   Floating Point Float Mul/Div:    0
   Floating Point Double Mul/Div:   0
   0 Cycle Compare FU's:            0
   GEP Instruction FU's:            0
   Type Conversion FU's:            0
   Other:                           0

   ========= Pipeline Register Usage =============
   Total Number of Registers:       5641
   Max Register Usage Per Cycle:    137
   Avg Register Usage Per Cycle:    12.130992
   Avg Register Size (Bytes):       5.980606

   ========= Memory Configuration =================
   Cache Bus Ports:                 0
   Shared Cache Size:               0kB
   Local Bus Ports:                 0
   Private SPM Size:                256kB
   Private Read Ports:              0
   Private Write Ports:             0
   Private Read Bus Width:          64
   Private Write Bus Width:         64
       Memory Reads:                0
       Memory Writes:               0
   ========= Power Analysis ======================
   FU Leakage Power:                0.045377 mW 
   FU Dynamic Power:                0.142576 mW 
   FU Total Power:                  0.187953 mW 

   Registers Leakage Power:          0.005281 mW 
   Registers Dynamic Power:          0.015326 mW 
       Register Reads (Bits):        132616
       Register Writes (Bits):       133658
   Registers Total Power:            0.020607 mW

   SPM Leakage Power:               0.104100 mW
   SPM Read Dynamic Power:          5.599688 mW
   SPM Write Dynamic Power:         4.937352 mW
   SPM Total Power:                 10.641140 mW

   Cache Leakage Power:             0.000000 mW
   Cache Read Dynamic Power:        0.000000 mW
   Cache Write Dynamic Power:       0.000000 mW
   Cache Total Power:               0.000000 mW

   Accelerator Power:               0.208559 mW
   Accelerator Power (SPM):         10.849700 mW
   Accelerator Power (Cache):       0.208559 mW

   ========= Area Analysis =======================
   FU Area:                         5472.068359 um^2 (0.005472 mm^2)
   Register Area:                   429.271088 um^2 (0.000429 mm^2)
   SPM Area:                        2177.365505 um^2 (0.002177 mm^2)
   Cache Area:                      0.000000 um^2 (0.000000 mm^2)

   Accelerator Area:                5901.339355 um^2 (0.005901 mm^2)
   Accelerator Area (SPM):          8078.704860 um^2 (0.008079 mm^2)
   Accelerator Area (Cache):        5901.339355 um^2 (0.005901 mm^2)

   ========= SPM Resizing  =======================
   SPM Optimized Leakage Power:     0.004248 mW
   SPM Opt Area:                    178.524902 um^2

3903669375: global: Timer #0 started at tick 3903669375
3903826250: global: Timer #2 started at tick 3903826250
3904106875: global: Timer #2 stopped at tick 3904106875. Duration: 280625
3917299500: system.acctest.elem_matrix0_dma: SRC:0x0000000024020020, DST:0x000000008214e240, LEN:65536
3917655625: global: Timer #0 stopped at tick 3917655625. Duration: 13986250
3917671875: global: Number of accelerators running = 2
3923594500: system.acctest.elem_matrix0_dma: Transfer completed in 6.295 us
3923670000: global: Timer #0 started at tick 3923670000
3923990000: global: Timer #1 started at tick 3923990000
3924051875: global: Timer #1 stopped at tick 3924051875. Duration: 61875
3924272500: global: DAG ID = 1
3924286250: global: Node ID = 1
3924304375: global: Node deadline difference = -2276
3924316875: global: Predicted memory time / byte = 0.000185638 us/byte
3924329375: global: Predicted memory time = 24.332 us
3924341875: global: Predicted memory time / byte = 0.000185638 us/byte
3924354375: global: Predicted memory time = 12.166 us
3924366875: global: Predicted memory time / byte = 0.000183846 us/byte
3924379375: global: Predicted memory time = 24.097 us
3924391875: global: Predicted memory time / byte = 9.59167e-05 us/byte
3924404375: global: Predicted memory time = 6.286 us
3924416875: global: Predicted memory access size = 0
3924429375: global: Predicted memory access size = 131072
3924441875: global: Predicted memory access size = 0
3924454375: global: Predicted memory access size = 65536
3937870875: system.acctest.elem_matrix0_dma: SRC:0x00000000821ce240, DST:0x0000000024000020, LEN:65536
3938071875: global: Timer #0 stopped at tick 3938071875. Duration: 14401875
3938088125: global: Number of accelerators running = 2
3949834875: system.acctest.elem_matrix0_dma: Transfer completed in 11.964 us
3949953125: global: Timer #0 started at tick 3949953125
3950399375: global: Timer #1 started at tick 3950399375
3950628750: global: Timer #1 stopped at tick 3950628750. Duration: 229375
3964120875: system.acctest.elem_matrix0_dma: SRC:0x000000008210e0c0, DST:0x0000000024010020, LEN:65536
3964343125: global: Timer #0 stopped at tick 3964343125. Duration: 14390000
3964359375: global: Number of accelerators running = 2
3976087875: system.acctest.elem_matrix0_dma: Transfer completed in 11.967 us
3976164375: global: Timer #0 started at tick 3976164375
3976656250: global: Timer #1 started at tick 3976656250
3976838750: global: Timer #1 stopped at tick 3976838750. Duration: 182500
3978403750: global: Timer #0 stopped at tick 3978403750. Duration: 2239375
3978420000: global: Number of accelerators running = 2
********************************************************************************
system.acctest.elem_matrix0.compute
   ========= Performance Analysis =============
   Setup Time:                      9.036667seconds
   Simulation Time:                 258.789135seconds
   System Clock:                    1.000000GHz
   Transistor Latency:              1ns
   Runtime:                         10932 cycles
   Runtime:                         10.932000 us
   Stalls:                          1 cycles
   Executed Nodes:                  10930 cycles

********************************************************************************
   ========= Performance Analysis =================
   Setup Time:                      9036667332.000000ns
   Simulation Time:                 258789135047.000000ns
   System Clock:                    1.000000GHz
   Transistor Latency:              0ns
   Runtime:                         10932 cycles
   Runtime:                         0.000001 seconds
   Stalls:                          1 cycles
       Load Only:                   0 cycles
       Store Only:                  1 cycles
       Compute Only:                0 cycles
       Compute & Store:             0 cycles
       Load & Store:                0 cycles
       Load & Compute:              0 cycles
       Load & Compute & Store:      0 cycles
   Executed Nodes:                  10930 cycles
       Load Only:                   0 cycles
       Store Only:                  4 cycles
       Compute Only:                1 cycles
       Compute & Store:             21 cycles
       Load & Store:                0 cycles
       Load & Compute:              6 cycles
       Load & Compute & Store:      10898 cycles

   ========= Runtime FU's ========= (Max | Avg) ===
   Counter FU's:                      32 | 0.046838
   Integer Add/Sub FU's:               0 | 0.000000
   Integer Mul/Div FU's:               0 | 0.000000
   Integer Shifter FU's:               0 | 0.000000
   Integer Bitwise FU's:               1 | 0.000091
   Floating Point Float Add/Sub:       0 | 0.000000
   Floating Point Double Add/Sub:      0 | 0.000000
   Floating Point Float Mul/Div:      34 | 0.044252
   Floating Point Double Mul/Div:      0 | 0.000000
   0 Cycle Compare FU's:             102 | 0.046945
   GEP Instruction FU's:              96 | 0.046835
   Type Conversion FU's:               7 | 0.006782

   ========= Static FU's ==========================
   Counter FU's:                    0
   Integer Add/Sub FU's:            0
   Integer Mul/Div FU's:            0
   Integer Shifter FU's:            0
   Integer Bitwise FU's:            0
   Floating Point Float Add/Sub:    0
   Floating Point Double Add/Sub:   0
   Floating Point Float Mul/Div:    0
   Floating Point Double Mul/Div:   0
   0 Cycle Compare FU's:            0
   GEP Instruction FU's:            0
   Type Conversion FU's:            0
   Other:                           0

   ========= Pipeline Register Usage =============
   Total Number of Registers:       5641
   Max Register Usage Per Cycle:    137
   Avg Register Usage Per Cycle:    12.130992
   Avg Register Size (Bytes):       5.980606

   ========= Memory Configuration =================
   Cache Bus Ports:                 0
   Shared Cache Size:               0kB
   Local Bus Ports:                 0
   Private SPM Size:                256kB
   Private Read Ports:              0
   Private Write Ports:             0
   Private Read Bus Width:          64
   Private Write Bus Width:         64
       Memory Reads:                0
       Memory Writes:               0
   ========= Power Analysis ======================
   FU Leakage Power:                0.045377 mW 
   FU Dynamic Power:                0.142576 mW 
   FU Total Power:                  0.187953 mW 

   Registers Leakage Power:          0.005281 mW 
   Registers Dynamic Power:          0.015326 mW 
       Register Reads (Bits):        132616
       Register Writes (Bits):       133658
   Registers Total Power:            0.020607 mW

   SPM Leakage Power:               0.104100 mW
   SPM Read Dynamic Power:          6.009405 mW
   SPM Write Dynamic Power:         4.673423 mW
   SPM Total Power:                 10.786928 mW

   Cache Leakage Power:             0.000000 mW
   Cache Read Dynamic Power:        0.000000 mW
   Cache Write Dynamic Power:       0.000000 mW
   Cache Total Power:               0.000000 mW

   Accelerator Power:               0.208559 mW
   Accelerator Power (SPM):         10.995488 mW
   Accelerator Power (Cache):       0.208559 mW

   ========= Area Analysis =======================
   FU Area:                         5472.068359 um^2 (0.005472 mm^2)
   Register Area:                   429.271088 um^2 (0.000429 mm^2)
   SPM Area:                        2177.365505 um^2 (0.002177 mm^2)
   Cache Area:                      0.000000 um^2 (0.000000 mm^2)

   Accelerator Area:                5901.339355 um^2 (0.005901 mm^2)
   Accelerator Area (SPM):          8078.704860 um^2 (0.008079 mm^2)
   Accelerator Area (Cache):        5901.339355 um^2 (0.005901 mm^2)

   ========= SPM Resizing  =======================
   SPM Optimized Leakage Power:     0.004248 mW
   SPM Opt Area:                    178.524902 um^2

3989187500: global: Timer #0 started at tick 3989187500
3989418750: global: Timer #2 started at tick 3989418750
3989691250: global: Timer #2 stopped at tick 3989691250. Duration: 272500
4002877375: system.acctest.elem_matrix0_dma: SRC:0x0000000024020020, DST:0x00000000821de240, LEN:65536
4003227500: global: Timer #0 stopped at tick 4003227500. Duration: 14040000
4003243750: global: Number of accelerators running = 2
4009163375: system.acctest.elem_matrix0_dma: Transfer completed in 6.286 us
4009239375: global: Timer #0 started at tick 4009239375
4009559375: global: Timer #1 started at tick 4009559375
4009621250: global: Timer #1 stopped at tick 4009621250. Duration: 61875
4009841250: global: DAG ID = 1
4009855000: global: Node ID = 10
4009873125: global: Node deadline difference = -2191
4009885625: global: Predicted memory time / byte = 0.000184448 us/byte
4009898125: global: Predicted memory time = 24.176 us
4009910625: global: Predicted memory time / byte = 0.000184448 us/byte
4009923125: global: Predicted memory time = 12.088 us
4009935625: global: Predicted memory time / byte = 0.000183777 us/byte
4009948125: global: Predicted memory time = 24.088 us
4009960625: global: Predicted memory time / byte = 9.57794e-05 us/byte
4009973125: global: Predicted memory time = 6.277 us
4009985625: global: Predicted memory access size = 0
4009998125: global: Predicted memory access size = 131072
4010010625: global: Predicted memory access size = 0
4010023125: global: Predicted memory access size = 65536
4023449500: system.acctest.elem_matrix0_dma: SRC:0x000000008214e240, DST:0x0000000024000020, LEN:65536
4023650625: global: Timer #0 stopped at tick 4023650625. Duration: 14411250
4023666875: global: Number of accelerators running = 2
4035430500: system.acctest.elem_matrix0_dma: Transfer completed in 11.981 us
4035549375: global: Timer #0 started at tick 4035549375
4035996250: global: Timer #1 started at tick 4035996250
4036224375: global: Timer #1 stopped at tick 4036224375. Duration: 228125
4049701625: system.acctest.elem_matrix0_dma: SRC:0x00000000820de0c0, DST:0x0000000024010020, LEN:65536
4049924375: global: Timer #0 stopped at tick 4049924375. Duration: 14375000
4049940625: global: Number of accelerators running = 2
4061677625: system.acctest.elem_matrix0_dma: Transfer completed in 11.976 us
4061754375: global: Timer #0 started at tick 4061754375
4062246250: global: Timer #1 started at tick 4062246250
4062428750: global: Timer #1 stopped at tick 4062428750. Duration: 182500
4063988750: global: Timer #0 stopped at tick 4063988750. Duration: 2234375
4064005000: global: Number of accelerators running = 2
********************************************************************************
system.acctest.elem_matrix0.compute
   ========= Performance Analysis =============
   Setup Time:                      10.529807seconds
   Simulation Time:                 252.870974seconds
   System Clock:                    1.000000GHz
   Transistor Latency:              1ns
   Runtime:                         10932 cycles
   Runtime:                         10.932000 us
   Stalls:                          0 cycles
   Executed Nodes:                  10931 cycles

********************************************************************************
   ========= Performance Analysis =================
   Setup Time:                      10529806746.000000ns
   Simulation Time:                 252870974273.000000ns
   System Clock:                    1.000000GHz
   Transistor Latency:              0ns
   Runtime:                         10932 cycles
   Runtime:                         0.000001 seconds
   Stalls:                          0 cycles
       Load Only:                   0 cycles
       Store Only:                  0 cycles
       Compute Only:                0 cycles
       Compute & Store:             0 cycles
       Load & Store:                0 cycles
       Load & Compute:              0 cycles
       Load & Compute & Store:      0 cycles
   Executed Nodes:                  10931 cycles
       Load Only:                   0 cycles
       Store Only:                  5 cycles
       Compute Only:                1 cycles
       Compute & Store:             21 cycles
       Load & Store:                0 cycles
       Load & Compute:              7 cycles
       Load & Compute & Store:      10897 cycles

   ========= Runtime FU's ========= (Max | Avg) ===
   Counter FU's:                      32 | 0.046838
   Integer Add/Sub FU's:               0 | 0.000000
   Integer Mul/Div FU's:               0 | 0.000000
   Integer Shifter FU's:               0 | 0.000000
   Integer Bitwise FU's:               1 | 0.000091
   Floating Point Float Add/Sub:      34 | 0.044252
   Floating Point Double Add/Sub:      0 | 0.000000
   Floating Point Float Mul/Div:       0 | 0.000000
   Floating Point Double Mul/Div:      0 | 0.000000
   0 Cycle Compare FU's:             102 | 0.046974
   GEP Instruction FU's:              96 | 0.046835
   Type Conversion FU's:               7 | 0.006782

   ========= Static FU's ==========================
   Counter FU's:                    0
   Integer Add/Sub FU's:            0
   Integer Mul/Div FU's:            0
   Integer Shifter FU's:            0
   Integer Bitwise FU's:            0
   Floating Point Float Add/Sub:    0
   Floating Point Double Add/Sub:   0
   Floating Point Float Mul/Div:    0
   Floating Point Double Mul/Div:   0
   0 Cycle Compare FU's:            0
   GEP Instruction FU's:            0
   Type Conversion FU's:            0
   Other:                           0

   ========= Pipeline Register Usage =============
   Total Number of Registers:       5641
   Max Register Usage Per Cycle:    138
   Avg Register Usage Per Cycle:    12.130992
   Avg Register Size (Bytes):       5.980606

   ========= Memory Configuration =================
   Cache Bus Ports:                 0
   Shared Cache Size:               0kB
   Local Bus Ports:                 0
   Private SPM Size:                256kB
   Private Read Ports:              0
   Private Write Ports:             0
   Private Read Bus Width:          64
   Private Write Bus Width:         64
       Memory Reads:                0
       Memory Writes:               0
   ========= Power Analysis ======================
   FU Leakage Power:                0.519269 mW 
   FU Dynamic Power:                0.154621 mW 
   FU Total Power:                  0.673890 mW 

   Registers Leakage Power:          0.005281 mW 
   Registers Dynamic Power:          0.015326 mW 
       Register Reads (Bits):        132616
       Register Writes (Bits):       133658
   Registers Total Power:            0.020607 mW

   SPM Leakage Power:               0.104100 mW
   SPM Read Dynamic Power:          7.109320 mW
   SPM Write Dynamic Power:         4.890273 mW
   SPM Total Power:                 12.103693 mW

   Cache Leakage Power:             0.000000 mW
   Cache Read Dynamic Power:        0.000000 mW
   Cache Write Dynamic Power:       0.000000 mW
   Cache Total Power:               0.000000 mW

[...]
       Compute & Store:             0 cycles
       Load & Store:                0 cycles
       Load & Compute:              0 cycles
       Load & Compute & Store:      0 cycles
   Executed Nodes:                  10931 cycles
       Load Only:                   0 cycles
       Store Only:                  5 cycles
       Compute Only:                1 cycles
       Compute & Store:             21 cycles
       Load & Store:                0 cycles
       Load & Compute:              7 cycles
       Load & Compute & Store:      10897 cycles

   ========= Runtime FU's ========= (Max | Avg) ===
   Counter FU's:                      32 | 0.046838
   Integer Add/Sub FU's:               0 | 0.000000
   Integer Mul/Div FU's:               0 | 0.000000
   Integer Shifter FU's:               0 | 0.000000
   Integer Bitwise FU's:               1 | 0.000091
   Floating Point Float Add/Sub:      34 | 0.044252
   Floating Point Double Add/Sub:      0 | 0.000000
   Floating Point Float Mul/Div:       0 | 0.000000
   Floating Point Double Mul/Div:      0 | 0.000000
   0 Cycle Compare FU's:             102 | 0.046974
   GEP Instruction FU's:              96 | 0.046835
   Type Conversion FU's:               7 | 0.006782

   ========= Static FU's ==========================
   Counter FU's:                    0
   Integer Add/Sub FU's:            0
   Integer Mul/Div FU's:            0
   Integer Shifter FU's:            0
   Integer Bitwise FU's:            0
   Floating Point Float Add/Sub:    0
   Floating Point Double Add/Sub:   0
   Floating Point Float Mul/Div:    0
   Floating Point Double Mul/Div:   0
   0 Cycle Compare FU's:            0
   GEP Instruction FU's:            0
   Type Conversion FU's:            0
   Other:                           0

   ========= Pipeline Register Usage =============
   Total Number of Registers:       5641
   Max Register Usage Per Cycle:    138
   Avg Register Usage Per Cycle:    12.130992
   Avg Register Size (Bytes):       5.980606

   ========= Memory Configuration =================
   Cache Bus Ports:                 0
   Shared Cache Size:               0kB
   Local Bus Ports:                 0
   Private SPM Size:                256kB
   Private Read Ports:              0
   Private Write Ports:             0
   Private Read Bus Width:          64
   Private Write Bus Width:         64
       Memory Reads:                0
       Memory Writes:               0
   ========= Power Analysis ======================
   FU Leakage Power:                0.519269 mW 
   FU Dynamic Power:                0.154621 mW 
   FU Total Power:                  0.673890 mW 

   Registers Leakage Power:          0.005281 mW 
   Registers Dynamic Power:          0.015326 mW 
       Register Reads (Bits):        132616
       Register Writes (Bits):       133658
   Registers Total Power:            0.020607 mW

   SPM Leakage Power:               0.104100 mW
   SPM Read Dynamic Power:          23.075128 mW
   SPM Write Dynamic Power:         19.055308 mW
   SPM Total Power:                 42.234536 mW

   Cache Leakage Power:             0.000000 mW
   Cache Read Dynamic Power:        0.000000 mW
   Cache Write Dynamic Power:       0.000000 mW
   Cache Total Power:               0.000000 mW

   Accelerator Power:               0.694497 mW
   Accelerator Power (SPM):         42.929033 mW
   Accelerator Power (Cache):       0.694497 mW

   ========= Area Analysis =======================
   FU Area:                         70212.562500 um^2 (0.070213 mm^2)
   Register Area:                   429.271088 um^2 (0.000429 mm^2)
   SPM Area:                        2177.365505 um^2 (0.002177 mm^2)
   Cache Area:                      0.000000 um^2 (0.000000 mm^2)

   Accelerator Area:                70641.835938 um^2 (0.070642 mm^2)
   Accelerator Area (SPM):          72819.201442 um^2 (0.072819 mm^2)
   Accelerator Area (Cache):        70641.835938 um^2 (0.070642 mm^2)

   ========= SPM Resizing  =======================
   SPM Optimized Leakage Power:     0.004248 mW
   SPM Opt Area:                    178.524902 um^2

10997762500: global: Timer #0 started at tick 10997762500
11011083750: system.acctest.elem_matrix0_dma: SRC:0x0000000024010020, DST:0x0000000082937c40, LEN:65536
11011441250: global: Timer #0 stopped at tick 11011441250. Duration: 13678750
11011457500: global: Number of accelerators running = 2
11017372750: system.acctest.elem_matrix0_dma: Transfer completed in 6.289 us
11017449375: global: Timer #0 started at tick 11017449375
11017836250: global: Timer #1 started at tick 11017836250
11017936250: global: Timer #1 stopped at tick 11017936250. Duration: 100000
11018156250: global: DAG ID = 1
11018170000: global: Node ID = 119
11018198750: global: DAG execution time = 7464
11018216875: global: DAG deadline difference = 464
11018233750: global: Node deadline difference = 464
11018246250: global: Predicted memory time / byte = 0.000184204 us/byte
11018258750: global: Predicted memory time = 24.144 us
11018271250: global: Predicted memory time / byte = 0.000184204 us/byte
11018283750: global: Predicted memory time = 12.072 us
11018296250: global: Predicted memory time / byte = 0.000184784 us/byte
11018308750: global: Predicted memory time = 12.11 us
11018321250: global: Predicted memory time / byte = 9.66034e-05 us/byte
11018333750: global: Predicted memory time = 6.331 us
11018346250: global: Predicted memory access size = 0
11018358750: global: Predicted memory access size = 65536
11018371250: global: Predicted memory access size = 0
11018383750: global: Predicted memory access size = 65536
11018487500: global: Timer #0 stopped at tick 11018487500. Duration: 1038125
11018503750: global: Number of accelerators running = 1
********************************************************************************
system.acctest.canny_non_max0.compute
   ========= Performance Analysis =============
   Setup Time:                      0.225692seconds
   Simulation Time:                 493.950151seconds
   System Clock:                    1.000000GHz
   Transistor Latency:              1ns
   Runtime:                         398570 cycles
   Runtime:                         398.570000 us
   Stalls:                          127008 cycles
   Executed Nodes:                  271561 cycles

********************************************************************************
   ========= Performance Analysis =================
   Setup Time:                      225692228.000000ns
   Simulation Time:                 493950150657.000000ns
   System Clock:                    1.000000GHz
   Transistor Latency:              0ns
   Runtime:                         398570 cycles
   Runtime:                         0.000040 seconds
   Stalls:                          127008 cycles
       Load Only:                   15876 cycles
       Store Only:                  0 cycles
       Compute Only:                111132 cycles
       Compute & Store:             0 cycles
       Load & Store:                0 cycles
       Load & Compute:              0 cycles
       Load & Compute & Store:      0 cycles
   Executed Nodes:                  271561 cycles
       Load Only:                   0 cycles
       Store Only:                  0 cycles
       Compute Only:                207549 cycles
       Compute & Store:             16384 cycles
       Load & Store:                0 cycles
       Load & Compute:              47628 cycles
       Load & Compute & Store:      0 cycles

   ========= Runtime FU's ========= (Max | Avg) ===
   Counter FU's:                       3 | 0.014133
   Integer Add/Sub FU's:               2 | 0.060386
   Integer Mul/Div FU's:               0 | 0.000000
   Integer Shifter FU's:               4 | 0.000321
   Integer Bitwise FU's:               7 | 0.074892
   Floating Point Float Add/Sub:       1 | 0.039832
   Floating Point Double Add/Sub:      0 | 0.000000
   Floating Point Float Mul/Div:       0 | 0.000000
   Floating Point Double Mul/Div:      2 | 0.039832
   0 Cycle Compare FU's:              12 | 0.103689
   GEP Instruction FU's:               2 | 0.100218
   Type Conversion FU's:              11 | 0.051342

   ========= Static FU's ==========================
   Counter FU's:                    0
   Integer Add/Sub FU's:            0
   Integer Mul/Div FU's:            0
   Integer Shifter FU's:            0
   Integer Bitwise FU's:            0
   Floating Point Float Add/Sub:    0
   Floating Point Double Add/Sub:   0
   Floating Point Float Mul/Div:    0
   Floating Point Double Mul/Div:   0
   0 Cycle Compare FU's:            0
   GEP Instruction FU's:            0
   Type Conversion FU's:            0
   Other:                           0

   ========= Pipeline Register Usage =============
   Total Number of Registers:       984
   Max Register Usage Per Cycle:    14
   Avg Register Usage Per Cycle:    1.648303
   Avg Register Size (Bytes):       5.902013

   ========= Memory Configuration =================
   Cache Bus Ports:                 0
   Shared Cache Size:               0kB
   Local Bus Ports:                 0
   Private SPM Size:                256kB
   Private Read Ports:              0
   Private Write Ports:             0
   Private Read Bus Width:          64
   Private Write Bus Width:         64
       Memory Reads:                0
       Memory Writes:               0
   ========= Power Analysis ======================
   FU Leakage Power:                0.154296 mW 
   FU Dynamic Power:                31.700634 mW 
   FU Total Power:                  31.854931 mW 

   Registers Leakage Power:          0.000434 mW 
   Registers Dynamic Power:          0.229710 mW 
       Register Reads (Bits):        656967
       Register Writes (Bits):       674141
   Registers Total Power:            0.230144 mW

   SPM Leakage Power:               0.104100 mW
   SPM Read Dynamic Power:          2.733186 mW
   SPM Write Dynamic Power:         0.953321 mW
   SPM Total Power:                 3.790607 mW

   Cache Leakage Power:             0.000000 mW
   Cache Read Dynamic Power:        0.000000 mW
   Cache Write Dynamic Power:       0.000000 mW
   Cache Total Power:               0.000000 mW

   Accelerator Power:               32.085075 mW
   Accelerator Power (SPM):         35.875683 mW
   Accelerator Power (Cache):       32.085075 mW

   ========= Area Analysis =======================
   FU Area:                         17359.687500 um^2 (0.017360 mm^2)
   Register Area:                   35.302494 um^2 (0.000035 mm^2)
   SPM Area:                        2177.365505 um^2 (0.002177 mm^2)
   Cache Area:                      0.000000 um^2 (0.000000 mm^2)

   Accelerator Area:                17394.990234 um^2 (0.017395 mm^2)
   Accelerator Area (SPM):          19572.355739 um^2 (0.019572 mm^2)
   Accelerator Area (Cache):        17394.990234 um^2 (0.017395 mm^2)

   ========= SPM Resizing  =======================
   SPM Optimized Leakage Power:     0.002053 mW
   SPM Opt Area:                    145.024971 um^2

11227968125: global: Timer #0 started at tick 11227968125
11228315625: global: Timer #2 started at tick 11228315625
11228684375: global: Timer #2 stopped at tick 11228684375. Duration: 368750
11228937500: global: DAG ID = 0
11228951250: global: Node ID = 10
11228964375: global: Node deadline difference = -8753
11228976875: global: Predicted memory time / byte = 0.000185852 us/byte
11228989375: global: Predicted memory time = 24.36 us
11229001875: global: Predicted memory time / byte = 0.000185852 us/byte
11229014375: global: Predicted memory time = 12.18 us
11229026875: global: Predicted memory time / byte = 0.000302086 us/byte
11229039375: global: Predicted memory time = 39.595 us
11229051875: global: Predicted memory time / byte = 0 us/byte
11229064375: global: Predicted memory time = 0 us
11229076875: global: Predicted memory access size = 0
11229089375: global: Predicted memory access size = 131072
11229101875: global: Predicted memory access size = 0
11229114375: global: Predicted memory access size = 0
11230038750: system.acctest.edge_tracking0_dma: SRC:0x0000000021020020, DST:0x0000000023000020, LEN:65536
11230335000: global: Timer #0 stopped at tick 11230335000. Duration: 2366875
11230351250: global: Number of accelerators running = 1
11240299750: system.acctest.edge_tracking0_dma: Transfer completed in 10.261 us
11240398125: global: Timer #0 started at tick 11240398125
11240901250: global: Timer #1 started at tick 11240901250
11241083750: global: Timer #1 stopped at tick 11241083750. Duration: 182500
11242643750: global: Timer #0 stopped at tick 11242643750. Duration: 2245625
11242703125: global: Number of accelerators running = 1
********************************************************************************
system.acctest.edge_tracking0.compute
   ========= Performance Analysis =============
   Setup Time:                      0.043506seconds
   Simulation Time:                 103.101678seconds
   System Clock:                    1.000000GHz
   Transistor Latency:              1ns
   Runtime:                         228784 cycles
   Runtime:                         228.784000 us
   Stalls:                          32265 cycles
   Executed Nodes:                  196518 cycles

********************************************************************************
   ========= Performance Analysis =================
   Setup Time:                      43506288.000000ns
   Simulation Time:                 103101677537.000000ns
   System Clock:                    1.000000GHz
   Transistor Latency:              0ns
   Runtime:                         228784 cycles
   Runtime:                         0.000023 seconds
   Stalls:                          32265 cycles
       Load Only:                   32259 cycles
       Store Only:                  0 cycles
       Compute Only:                6 cycles
       Compute & Store:             0 cycles
       Load & Store:                0 cycles
       Load & Compute:              0 cycles
       Load & Compute & Store:      0 cycles
   Executed Nodes:                  196518 cycles
       Load Only:                   0 cycles
       Store Only:                  0 cycles
       Compute Only:                115106 cycles
       Compute & Store:             32768 cycles
       Load & Store:                0 cycles
       Load & Compute:              48644 cycles
       Load & Compute & Store:      0 cycles

   ========= Runtime FU's ========= (Max | Avg) ===
   Counter FU's:                       6 | 0.036556
   Integer Add/Sub FU's:               1 | 0.143227
   Integer Mul/Div FU's:               1 | 0.000009
   Integer Shifter FU's:               2 | 0.000839
   Integer Bitwise FU's:               3 | 0.095348
   Floating Point Float Add/Sub:       0 | 0.000000
   Floating Point Double Add/Sub:      0 | 0.000000
   Floating Point Float Mul/Div:       2 | 0.000013
   Floating Point Double Mul/Div:      0 | 0.000000
   0 Cycle Compare FU's:              14 | 0.137965
   GEP Instruction FU's:               2 | 0.177921
   Type Conversion FU's:               8 | 0.063539

   ========= Static FU's ==========================
   Counter FU's:                    0
   Integer Add/Sub FU's:            0
   Integer Mul/Div FU's:            0
   Integer Shifter FU's:            0
   Integer Bitwise FU's:            0
   Floating Point Float Add/Sub:    0
   Floating Point Double Add/Sub:   0
   Floating Point Float Mul/Div:    0
   Floating Point Double Mul/Div:   0
   0 Cycle Compare FU's:            0
   GEP Instruction FU's:            0
   Type Conversion FU's:            0
   Other:                           0

   ========= Pipeline Register Usage =============
   Total Number of Registers:       545
   Max Register Usage Per Cycle:    10
   Avg Register Usage Per Cycle:    2.290921
   Avg Register Size (Bytes):       5.416587

   ========= Memory Configuration =================
   Cache Bus Ports:                 0
   Shared Cache Size:               0kB
   Local Bus Ports:                 0
   Private SPM Size:                96kB
   Private Read Ports:              0
   Private Write Ports:             0
   Private Read Bus Width:          64
   Private Write Bus Width:         64
       Memory Reads:                0
       Memory Writes:               0
   ========= Power Analysis ======================
   FU Leakage Power:                0.100547 mW 
   FU Dynamic Power:                4.487514 mW 
   FU Total Power:                  4.588061 mW 

   Registers Leakage Power:          0.000797 mW 
   Registers Dynamic Power:          0.193681 mW 
       Register Reads (Bits):        524129
       Register Writes (Bits):       541100
   Registers Total Power:            0.194478 mW

   SPM Leakage Power:               0.036222 mW
   SPM Read Dynamic Power:          1.276530 mW
   SPM Write Dynamic Power:         1.004807 mW
   SPM Total Power:                 2.317559 mW

   Cache Leakage Power:             0.000000 mW
   Cache Read Dynamic Power:        0.000000 mW
   Cache Write Dynamic Power:       0.000000 mW
   Cache Total Power:               0.000000 mW

   Accelerator Power:               4.782539 mW
   Accelerator Power (SPM):         7.100099 mW
   Accelerator Power (Cache):       4.782539 mW

   ========= Area Analysis =======================
   FU Area:                         10667.099609 um^2 (0.010667 mm^2)
   Register Area:                   64.797905 um^2 (0.000065 mm^2)
   SPM Area:                        517.544224 um^2 (0.000518 mm^2)
   Cache Area:                      0.000000 um^2 (0.000000 mm^2)

   Accelerator Area:                10731.897461 um^2 (0.010732 mm^2)
   Accelerator Area (SPM):          11249.441685 um^2 (0.011249 mm^2)
   Accelerator Area (Cache):        10731.897461 um^2 (0.010732 mm^2)

   ========= SPM Resizing  =======================
   SPM Optimized Leakage Power:     0.001770 mW
   SPM Opt Area:                    77.453784 um^2

11471060000: global: Timer #0 started at tick 11471060000
11475041625: system.acctest.edge_tracking0_dma: SRC:0x0000000023010020, DST:0x00000000820ca0c0, LEN:16384
11475414375: global: Timer #0 stopped at tick 11475414375. Duration: 4354375
11475430625: global: Number of accelerators running = 1
11476769625: system.acctest.edge_tracking0_dma: Transfer completed in 1.728 us
11476846250: global: Timer #0 started at tick 11476846250
11477180000: global: Timer #1 started at tick 11477180000
11477320000: global: Timer #1 stopped at tick 11477320000. Duration: 140000
11477531250: global: DAG ID = 0
11477545000: global: Node ID = 11
11477568750: global: DAG execution time = 7923
11477581875: global: DAG deadline difference = -8744
11477599375: global: Node deadline difference = -8744
11477611875: global: Predicted memory time / byte = 9.66034e-05 us/byte
11477624375: global: Predicted memory time = 6.331 us
11477636875: global: Predicted memory time / byte = 9.66034e-05 us/byte
11477649375: global: Predicted memory time = 1.58275 us
11477661875: global: Predicted memory time / byte = 0.000157257 us/byte
11477674375: global: Predicted memory time = 10.306 us
11477686875: global: Predicted memory time / byte = 0.000104614 us/byte
11477699375: global: Predicted memory time = 1.714 us
11477711875: global: Predicted memory access size = 0
11477724375: global: Predicted memory access size = 65536
11477736875: global: Predicted memory access size = 0
11477749375: global: Predicted memory access size = 16384
11477853125: global: Timer #0 stopped at tick 11477853125. Duration: 1006875
11477869375: global: Number of accelerators running = 0
11477949375: global: Number of forwards = 67
11478085000: global: Number of colocations = 63
11478104375: global: Number of DAG deadlines met = 1
11478123750: global: Number of node deadlines met = 126
11478157500: global: Total predicted compute time = 4779 us
Exiting @ tick 11478406875 because m5_exit instruction encountered
