gem5 Simulator System.  http://gem5.org
gem5 is copyrighted software; use the --copyright option for details.

gem5 compiled Oct  4 2023 20:26:28
gem5 started Oct  6 2023 17:18:14
gem5 executing on node4x10a.cs.rochester.edu, pid 71709
command line: /u/sgupta45/gem5-SALAM/build/ARM/gem5_bus.opt --debug-flags=HWACC,CommInterface,LLVMInterface,StreamDma,NoncoherentDma,TickTimer,SchedulerStats --outdir=BM_ARM_OUT/comb_pred_2_opt_flush_opt_fwd/canny_1_deblur_0_gru_1_harris_0_lstm_0_LAX_MEM_PRED_EWMA_0.25_dm_false configs/SALAM/scheduler.py --mem-size=4GB --mem-type=LPDDR5_6400_1x16_BG_BL32 --kernel=/u/sgupta45/gem5-SALAM/benchmarks/scheduler/sw/bin_comb_pred_2/canny_1_deblur_0_gru_1_harris_0_lstm_0_LAX_MEM_PRED_EWMA_0.25_dm_false.elf --vans-config-path=/u/sgupta45/VANS/config --disk-image=/u/sgupta45/gem5-SALAM/baremetal/common/fake.iso --machine-type=VExpress_GEM5_V1 --dtb-file=none --bare-metal --cpu-type=ex5_LITTLE --cpu-clock=1.6GHz --accpath=/u/sgupta45/gem5-SALAM/benchmarks --caches --cacheline_size=64 --l1d_size=32kB --l1d_assoc=4 --l1i_size=32kB --l1i_assoc=2

Global frequency set at 1000000000000 ticks per second
Cycle Counts Loaded!
Cycle Counts Loaded!
Cycle Counts Loaded!
Cycle Counts Loaded!
Cycle Counts Loaded!
Cycle Counts Loaded!
Cycle Counts Loaded!
Cycle Counts Loaded!
Cycle Counts Loaded!
Cycle Counts Loaded!
Cycle Counts Loaded!
**** REAL SIMULATION ****
3838750: global: Timer #8 started at tick 3838750
7260625: global: Timer #8 stopped at tick 7260625. Duration: 3421875
7330625: global: Timer #8 started at tick 7330625
16689375: global: Timer #8 stopped at tick 16689375. Duration: 9358750
17091875: global: Timer #8 started at tick 17091875
29543750: global: Timer #8 stopped at tick 29543750. Duration: 12451875
30230000: global: Timer #8 started at tick 30230000
30283750: global: Timer #8 stopped at tick 30283750. Duration: 53750
30309375: global: Timer #8 started at tick 30309375
42766250: global: Timer #8 stopped at tick 42766250. Duration: 12456875
45771875: global: Timer #8 started at tick 45771875
45807500: global: Timer #8 stopped at tick 45807500. Duration: 35625
45833750: global: Timer #8 started at tick 45833750
45863125: global: Timer #8 stopped at tick 45863125. Duration: 29375
45923125: global: Timer #8 started at tick 45923125
58376250: global: Timer #8 stopped at tick 58376250. Duration: 12453125
58395000: global: Timer #8 started at tick 58395000
70855625: global: Timer #8 stopped at tick 70855625. Duration: 12460625
70873125: global: Timer #8 started at tick 70873125
83336250: global: Timer #8 stopped at tick 83336250. Duration: 12463125
83353750: global: Timer #8 started at tick 83353750
95811875: global: Timer #8 stopped at tick 95811875. Duration: 12458125
95828750: global: Timer #8 started at tick 95828750
108282500: global: Timer #8 stopped at tick 108282500. Duration: 12453750
108300000: global: Timer #8 started at tick 108300000
120755625: global: Timer #8 stopped at tick 120755625. Duration: 12455625
120772500: global: Timer #8 started at tick 120772500
133226250: global: Timer #8 stopped at tick 133226250. Duration: 12453750
133706875: global: Timer #8 started at tick 133706875
146167500: global: Timer #8 stopped at tick 146167500. Duration: 12460625
146508125: global: Timer #8 started at tick 146508125
149647500: global: Timer #8 stopped at tick 149647500. Duration: 3139375
150724375: global: Timer #8 started at tick 150724375
163221250: global: Timer #8 stopped at tick 163221250. Duration: 12496875
163240000: global: Timer #8 started at tick 163240000
175695625: global: Timer #8 stopped at tick 175695625. Duration: 12455625
175712500: global: Timer #8 started at tick 175712500
188166250: global: Timer #8 stopped at tick 188166250. Duration: 12453750
188184375: global: Timer #8 started at tick 188184375
200641250: global: Timer #8 stopped at tick 200641250. Duration: 12456875
200660000: global: Timer #8 started at tick 200660000
213115625: global: Timer #8 stopped at tick 213115625. Duration: 12455625
213132500: global: Timer #8 started at tick 213132500
225586250: global: Timer #8 stopped at tick 225586250. Duration: 12453750
226130625: global: Timer #8 started at tick 226130625
238589375: global: Timer #8 stopped at tick 238589375. Duration: 12458750
756643125: global: Timer #8 started at tick 756643125
955666250: global: Timer #8 stopped at tick 955666250. Duration: 199023125
1365226875: global: Timer #8 started at tick 1365226875
1564250000: global: Timer #8 stopped at tick 1564250000. Duration: 199023125
1973626875: global: Timer #8 started at tick 1973626875
2172650000: global: Timer #8 stopped at tick 2172650000. Duration: 199023125
2582134375: global: Timer #8 started at tick 2582134375
2781153125: global: Timer #8 stopped at tick 2781153125. Duration: 199018750
3190211875: global: Timer #8 started at tick 3190211875
3389225000: global: Timer #8 stopped at tick 3389225000. Duration: 199013125
3798395000: global: Timer #8 started at tick 3798395000
3997410000: global: Timer #8 stopped at tick 3997410000. Duration: 199015000
4406759375: global: Timer #8 started at tick 4406759375
4605778125: global: Timer #8 stopped at tick 4605778125. Duration: 199018750
5015606875: global: Timer #8 started at tick 5015606875
5214620000: global: Timer #8 stopped at tick 5214620000. Duration: 199013125
5218523750: global: Timer #2 started at tick 5218523750
5219566875: global: Timer #2 stopped at tick 5219566875. Duration: 1043125
5222351875: global: Timer #2 started at tick 5222351875
5222718750: global: Timer #2 stopped at tick 5222718750. Duration: 366875
5239675000: global: Timer #6 started at tick 5239675000
5240303750: global: Timer #7 started at tick 5240303750
5241063750: system.acctest.elem_matrix0_dma: SRC:0x00000000822a8540, DST:0x0000000024000020, LEN:65536
5241315625: global: Timer #7 stopped at tick 5241315625. Duration: 1011875
5241429375: global: Timer #6 stopped at tick 5241429375. Duration: 1754375
5241651250: global: Timer #6 started at tick 5241651250
5242093750: global: Timer #7 started at tick 5242093750
5242822000: system.acctest.isp0_dma: SRC:0x0000000082092e80, DST:0x0000000027000020, LEN:16900
5243130625: global: Timer #7 stopped at tick 5243130625. Duration: 1036875
5243161250: global: Timer #6 stopped at tick 5243161250. Duration: 1510000
5243220625: global: Number of accelerators running = 2
5249434000: system.acctest.isp0_dma: Transfer completed in 6.612 us
5250100625: global: Timer #0 started at tick 5250100625
5251646250: global: Timer #1 started at tick 5251646250
5252299375: global: Timer #1 stopped at tick 5252299375. Duration: 653125
5252955625: global: Timer #6 started at tick 5252955625
5253255625: global: Timer #7 started at tick 5253255625
5253786250: global: Timer #7 stopped at tick 5253786250. Duration: 530625
5254079375: global: Timer #6 stopped at tick 5254079375. Duration: 1123750
5254396875: global: Timer #0 stopped at tick 5254396875. Duration: 4296250
5254415625: global: Number of accelerators running = 2
5256328750: system.acctest.elem_matrix0_dma: Transfer completed in 15.265 us
5256465625: global: Timer #0 started at tick 5256465625
5256887500: global: Timer #1 started at tick 5256887500
5257240625: global: Timer #1 stopped at tick 5257240625. Duration: 353125
5257553750: global: Timer #6 started at tick 5257553750
5258046875: global: Timer #7 started at tick 5258046875
5258692375: system.acctest.elem_matrix0_dma: SRC:0x00000000821a8380, DST:0x0000000024010020, LEN:65536
5258823125: global: Timer #7 stopped at tick 5258823125. Duration: 776250
5258898750: global: Timer #6 stopped at tick 5258898750. Duration: 1345000
5258995000: global: Timer #0 stopped at tick 5258995000. Duration: 2529375
5259009375: global: Number of accelerators running = 2
5270679375: system.acctest.elem_matrix0_dma: Transfer completed in 11.987 us
5270754375: global: Timer #0 started at tick 5270754375
5271116875: global: Timer #1 started at tick 5271116875
5271251250: global: Timer #1 stopped at tick 5271251250. Duration: 134375
5271550625: global: Timer #6 started at tick 5271550625
5271636250: global: Timer #7 started at tick 5271636250
5272665000: global: Timer #7 stopped at tick 5272665000. Duration: 1028750
5272756875: global: Timer #6 stopped at tick 5272756875. Duration: 1206250
5272863125: global: Timer #0 stopped at tick 5272863125. Duration: 2108750
5272877500: global: Number of accelerators running = 2
********************************************************************************
system.acctest.elem_matrix0.compute
   ========= Performance Analysis =============
   Setup Time:                      5.07352seconds
   Simulation Time:                 414.287seconds
   System Clock:                    1GHz
   Transistor Latency:              1ns
   Runtime:                         10932 cycles
   Runtime:                         10.932 us
   Stalls:                          0 cycles
   Executed Nodes:                  10931 cycles

********************************************************************************
   ========= Performance Analysis =================
   Setup Time:                      5.07352e+09ns
   Simulation Time:                 4.14287e+11ns
   System Clock:                    1GHz
   Transistor Latency:              0ns
   Runtime:                         10932 cycles
   Runtime:                         1.0932e-06 seconds
   Stalls:                          0 cycles
       Load Only:                   0 cycles
       Store Only:                  0 cycles
       Compute Only:                0 cycles
       Compute & Store:             0 cycles
       Load & Store:                0 cycles
       Load & Compute:              0 cycles
       Load & Compute & Store:      0 cycles
   Executed Nodes:                  10931 cycles
       Load Only:                   0 cycles
       Store Only:                  5 cycles
       Compute Only:                1 cycles
       Compute & Store:             21 cycles
       Load & Store:                0 cycles
       Load & Compute:              7 cycles
       Load & Compute & Store:      10897 cycles

   ========= Runtime FU's ========= (Max | Avg) ===
   Counter FU's:                      32 | 0.046838
   Integer Add/Sub FU's:               0 | 0.000000
   Integer Mul/Div FU's:               0 | 0.000000
   Integer Shifter FU's:               0 | 0.000000
   Integer Bitwise FU's:               1 | 0.000091
   Floating Point Float Add/Sub:      34 | 0.044252
   Floating Point Double Add/Sub:      0 | 0.000000
   Floating Point Float Mul/Div:       0 | 0.000000
   Floating Point Double Mul/Div:      0 | 0.000000
   0 Cycle Compare FU's:             102 | 0.046974
   GEP Instruction FU's:              96 | 0.046835
   Type Conversion FU's:               7 | 0.006782

   ========= Static FU's ==========================
   Counter FU's:                    0
   Integer Add/Sub FU's:            0
   Integer Mul/Div FU's:            0
   Integer Shifter FU's:            0
   Integer Bitwise FU's:            0
   Floating Point Float Add/Sub:    0
   Floating Point Double Add/Sub:   0
   Floating Point Float Mul/Div:    0
   Floating Point Double Mul/Div:   0
   0 Cycle Compare FU's:            0
   GEP Instruction FU's:            0
   Type Conversion FU's:            0
   Other:                           0

   ========= Pipeline Register Usage =============
   Total Number of Registers:       5641
   Max Register Usage Per Cycle:    138
   Avg Register Usage Per Cycle:    12.130992
   Avg Register Size (Bytes):       5.980606

   ========= Memory Configuration =================
   Cache Bus Ports:                 0
   Shared Cache Size:               0kB
   Local Bus Ports:                 0
   Private SPM Size:                256kB
   Private Read Ports:              0
   Private Write Ports:             0
   Private Read Bus Width:          64
   Private Write Bus Width:         64
       Memory Reads:                0
       Memory Writes:               0
   ========= Power Analysis ======================
   FU Leakage Power:                0.519269 mW 
   FU Dynamic Power:                0.154621 mW 
   FU Total Power:                  0.673890 mW 

   Registers Leakage Power:          0.005281 mW 
   Registers Dynamic Power:          0.015326 mW 
       Register Reads (Bits):        132616
       Register Writes (Bits):       133658
   Registers Total Power:            0.020607 mW

   SPM Leakage Power:               0.104100 mW
   SPM Read Dynamic Power:          1.997266 mW
   SPM Write Dynamic Power:         0.953321 mW
   SPM Total Power:                 3.054688 mW

   SPM Energy Per Read Access:      0.170493 nJ
   SPM Energy Per Write Access:     0.218190 nJ

   Cache Leakage Power:             0.000000 mW
   Cache Read Dynamic Power:        0.000000 mW
   Cache Write Dynamic Power:       0.000000 mW
   Cache Total Power:               0.000000 mW

   Accelerator Power:               0.694497 mW
   Accelerator Power (SPM):         3.749184 mW
   Accelerator Power (Cache):       0.694497 mW

   ========= Area Analysis =======================
   FU Area:                         70212.562500 um^2 (0.070213 mm^2)
   Register Area:                   429.271088 um^2 (0.000429 mm^2)
   SPM Area:                        2177.365505 um^2 (0.002177 mm^2)
   Cache Area:                      0.000000 um^2 (0.000000 mm^2)

   Accelerator Area:                70641.835938 um^2 (0.070642 mm^2)
   Accelerator Area (SPM):          72819.201442 um^2 (0.072819 mm^2)
   Accelerator Area (Cache):        70641.835938 um^2 (0.070642 mm^2)

   ========= SPM Resizing  =======================
   SPM Optimized Leakage Power:     0.004248 mW
   SPM Opt Area:                    178.524902 um^2

5283550000: global: Timer #0 started at tick 5283550000
5283806250: global: Timer #2 started at tick 5283806250
5284696250: global: Timer #2 stopped at tick 5284696250. Duration: 890000
5284834375: global: Timer #2 started at tick 5284834375
5285323750: global: Timer #2 stopped at tick 5285323750. Duration: 489375
5286101875: global: Timer #7 started at tick 5286101875
5286740875: system.acctest.elem_matrix0_dma: SRC:0x0000000024030020, DST:0x00000000821b8380, LEN:65536
5286888750: global: Timer #7 stopped at tick 5286888750. Duration: 786875
5287289375: global: Timer #0 stopped at tick 5287289375. Duration: 3739375
5287303750: global: Number of accelerators running = 2
********************************************************************************
system.acctest.isp0.compute
   ========= Performance Analysis =============
   Setup Time:                      0.168603seconds
   Simulation Time:                 864.201557seconds
   System Clock:                    1.000000GHz
   Transistor Latency:              1ns
   Runtime:                         34882 cycles
   Runtime:                         34.882000 us
   Stalls:                          1 cycles
   Executed Nodes:                  34880 cycles

********************************************************************************
   ========= Performance Analysis =================
   Setup Time:                      168602688.000000ns
   Simulation Time:                 864201556879.000000ns
   System Clock:                    1.000000GHz
   Transistor Latency:              0ns
   Runtime:                         34882 cycles
   Runtime:                         0.000003 seconds
   Stalls:                          1 cycles
       Load Only:                   0 cycles
       Store Only:                  1 cycles
       Compute Only:                0 cycles
       Compute & Store:             0 cycles
       Load & Store:                0 cycles
       Load & Compute:              0 cycles
       Load & Compute & Store:      0 cycles
   Executed Nodes:                  34880 cycles
       Load Only:                   0 cycles
       Store Only:                  1 cycles
       Compute Only:                3453 cycles
       Compute & Store:             19014 cycles
       Load & Store:                0 cycles
       Load & Compute:              2467 cycles
       Load & Compute & Store:      9945 cycles

   ========= Runtime FU's ========= (Max | Avg) ===
   Counter FU's:                      10 | 0.118075
   Integer Add/Sub FU's:              76 | 0.082082
   Integer Mul/Div FU's:              11 | 0.043888
   Integer Shifter FU's:              42 | 0.055974
   Integer Bitwise FU's:               4 | 0.059443
   Floating Point Float Add/Sub:      53 | 0.116839
   Floating Point Double Add/Sub:      0 | 0.000000
   Floating Point Float Mul/Div:      76 | 0.625626
   Floating Point Double Mul/Div:      0 | 0.000000
   0 Cycle Compare FU's:              85 | 0.664984
   GEP Instruction FU's:              33 | 0.117424
   Type Conversion FU's:             110 | 0.379700

   ========= Static FU's ==========================
   Counter FU's:                    0
   Integer Add/Sub FU's:            0
   Integer Mul/Div FU's:            0
   Integer Shifter FU's:            0
   Integer Bitwise FU's:            0
   Floating Point Float Add/Sub:    0
   Floating Point Double Add/Sub:   0
   Floating Point Float Mul/Div:    0
   Floating Point Double Mul/Div:   0
   0 Cycle Compare FU's:            0
   GEP Instruction FU's:            0
   Type Conversion FU's:            0
   Other:                           0

   ========= Pipeline Register Usage =============
   Total Number of Registers:       1620
   Max Register Usage Per Cycle:    151
   Avg Register Usage Per Cycle:    58.744711
   Avg Register Size (Bytes):       5.073357

   ========= Memory Configuration =================
   Cache Bus Ports:                 0
   Shared Cache Size:               0kB
   Local Bus Ports:                 0
   Private SPM Size:                112kB
   Private Read Ports:              0
   Private Write Ports:             0
   Private Read Bus Width:          64
   Private Write Bus Width:         64
       Memory Reads:                0
       Memory Writes:               0
   ========= Power Analysis ======================
   FU Leakage Power:                1.637787 mW 
   FU Dynamic Power:                9.655087 mW 
   FU Total Power:                  11.292874 mW 

   Registers Leakage Power:          0.021654 mW 
   Registers Dynamic Power:          3.085961 mW 
       Register Reads (Bits):        2049133
       Register Writes (Bits):       2049168
   Registers Total Power:            3.107615 mW

   SPM Leakage Power:               0.061081 mW
   SPM Read Dynamic Power:          11.103730 mW
   SPM Write Dynamic Power:         7.385230 mW
   SPM Total Power:                 18.550041 mW

   SPM Energy Per Read Access:      0.142059 nJ
   SPM Energy Per Write Access:     0.255513 nJ

   Cache Leakage Power:             0.000000 mW
   Cache Read Dynamic Power:        0.000000 mW
   Cache Write Dynamic Power:       0.000000 mW
   Cache Total Power:               0.000000 mW

   Accelerator Power:               14.400490 mW
   Accelerator Power (SPM):         32.950531 mW
   Accelerator Power (Cache):       14.400490 mW

   ========= Area Analysis =======================
   FU Area:                         176023.796875 um^2 (0.176024 mm^2)
   Register Area:                   1760.064941 um^2 (0.001760 mm^2)
   SPM Area:                        2165.394891 um^2 (0.002165 mm^2)
   Cache Area:                      0.000000 um^2 (0.000000 mm^2)

   Accelerator Area:                177783.859375 um^2 (0.177784 mm^2)
   Accelerator Area (SPM):          179949.254266 um^2 (0.179949 mm^2)
   Accelerator Area (Cache):        177783.859375 um^2 (0.177784 mm^2)

   ========= SPM Resizing  =======================
   SPM Optimized Leakage Power:     0.005964 mW
   SPM Opt Area:                    422.108128 um^2

5288638125: global: Timer #0 started at tick 5288638125
5289215000: global: Timer #2 started at tick 5289215000
5289528750: global: Timer #2 stopped at tick 5289528750. Duration: 313750
5289821250: global: DAG ID = 0
5289839375: global: Node ID = 0
5289902500: global: Node deadline difference = -13514
5289920625: global: Predicted memory time / byte = 7.27596e-05 us/byte
5289938750: global: Predicted memory time = 1.22964 us
5289956875: global: Predicted memory time / byte = 7.27596e-05 us/byte
5289975000: global: Predicted memory time = 3.57628 us
5290037500: global: Predicted memory time / byte = 0.00043858 us/byte
5290055625: global: Predicted memory time = 7.412 us
5290073750: global: Predicted memory time / byte = 0 us/byte
5290091875: global: Predicted memory time = 0 us
5290110000: global: Predicted memory access size = 0
5290128125: global: Predicted memory access size = 16900
5290190000: global: Predicted memory access size = 0
5290208750: global: Predicted memory access size = 0
5290366250: global: Timer #6 started at tick 5290366250
5290759375: global: Timer #7 started at tick 5290759375
5291415875: system.acctest.grayscale0_dma: SRC:0x0000000027010224, DST:0x0000000025000020, LEN:49152
5291735625: global: Timer #7 stopped at tick 5291735625. Duration: 976250
5291887500: global: Timer #6 stopped at tick 5291887500. Duration: 1521250
5292006875: global: Timer #0 stopped at tick 5292006875. Duration: 3368750
5292021250: global: Number of accelerators running = 2
5295295875: system.acctest.elem_matrix0_dma: Transfer completed in 8.555 us
5295378125: global: Timer #0 started at tick 5295378125
5296003750: global: Timer #1 started at tick 5296003750
5296384375: global: Timer #1 stopped at tick 5296384375. Duration: 380625
5296697500: global: DAG ID = 1
5296715625: global: Node ID = 0
5296782500: global: Node deadline difference = -2264
5296800625: global: Predicted memory time / byte = 7.27596e-05 us/byte
5296818750: global: Predicted memory time = 9.53674 us
5296836875: global: Predicted memory time / byte = 7.27596e-05 us/byte
5296855000: global: Predicted memory time = 4.76837 us
5296873125: global: Predicted memory time / byte = 0.000207916 us/byte
5296891250: global: Predicted memory time = 27.252 us
5296909375: global: Predicted memory time / byte = 0.000131882 us/byte
5296927500: global: Predicted memory time = 8.643 us
5296945625: global: Predicted memory access size = 0
5296963750: global: Predicted memory access size = 131072
5296981875: global: Predicted memory access size = 0
5297000000: global: Predicted memory access size = 65536
5297102500: global: Timer #6 started at tick 5297102500
5297705000: global: Timer #7 started at tick 5297705000
5298368000: system.acctest.elem_matrix0_dma: SRC:0x0000000082168200, DST:0x0000000024010020, LEN:65536
5298499375: global: Timer #7 stopped at tick 5298499375. Duration: 794375
5298570625: global: Timer #6 stopped at tick 5298570625. Duration: 1468125
5298671875: global: Timer #0 stopped at tick 5298671875. Duration: 3293750
5298686250: global: Number of accelerators running = 2
5301765875: system.acctest.grayscale0_dma: Transfer completed in 10.35 us
5301860000: global: Timer #0 started at tick 5301860000
5302196875: global: Timer #1 started at tick 5302196875
5302418750: global: Timer #1 stopped at tick 5302418750. Duration: 221875
5302732500: global: Timer #6 started at tick 5302732500
5302868750: global: Timer #7 started at tick 5302868750
5303310000: global: Timer #7 stopped at tick 5303310000. Duration: 441250
5303483750: global: Timer #6 stopped at tick 5303483750. Duration: 751250
5303597500: global: Timer #0 stopped at tick 5303597500. Duration: 1737500
5303611875: global: Number of accelerators running = 2
5310329000: system.acctest.elem_matrix0_dma: Transfer completed in 11.961 us
5310413125: global: Timer #0 started at tick 5310413125
5310753750: global: Timer #1 started at tick 5310753750
5310880625: global: Timer #1 stopped at tick 5310880625. Duration: 126875
5311118125: global: Timer #6 started at tick 5311118125
5311193125: global: Timer #7 started at tick 5311193125
5312213125: global: Timer #7 stopped at tick 5312213125. Duration: 1020000
5312535625: global: Timer #6 stopped at tick 5312535625. Duration: 1417500
5312645000: global: Timer #0 stopped at tick 5312645000. Duration: 2231875
5312659375: global: Number of accelerators running = 2
********************************************************************************
system.acctest.grayscale0.compute
   ========= Performance Analysis =============
   Setup Time:                      0.010050seconds
   Simulation Time:                 228.439413seconds
   System Clock:                    1.000000GHz
   Transistor Latency:              1ns
   Runtime:                         10263 cycles
   Runtime:                         10.263000 us
   Stalls:                          1 cycles
   Executed Nodes:                  10261 cycles

********************************************************************************
   ========= Performance Analysis =================
   Setup Time:                      10049721.000000ns
   Simulation Time:                 228439412911.000000ns
   System Clock:                    1.000000GHz
   Transistor Latency:              0ns
   Runtime:                         10263 cycles
   Runtime:                         0.000001 seconds
   Stalls:                          1 cycles
       Load Only:                   0 cycles
       Store Only:                  1 cycles
       Compute Only:                0 cycles
       Compute & Store:             0 cycles
       Load & Store:                0 cycles
       Load & Compute:              0 cycles
       Load & Compute & Store:      0 cycles
   Executed Nodes:                  10261 cycles
       Load Only:                   0 cycles
       Store Only:                  1 cycles
       Compute Only:                88 cycles
       Compute & Store:             344 cycles
       Load & Store:                0 cycles
       Load & Compute:              1981 cycles
       Load & Compute & Store:      7847 cycles

   ========= Runtime FU's ========= (Max | Avg) ===
   Counter FU's:                      24 | 0.199556
   Integer Add/Sub FU's:               0 | 0.000000
   Integer Mul/Div FU's:               8 | 0.199552
   Integer Shifter FU's:               0 | 0.000000
   Integer Bitwise FU's:               1 | 0.000097
   Floating Point Float Add/Sub:      49 | 0.114264
   Floating Point Double Add/Sub:      0 | 0.000000
   Floating Point Float Mul/Div:      42 | 0.114129
   Floating Point Double Mul/Div:      0 | 0.000000
   0 Cycle Compare FU's:               9 | 0.066626
   GEP Instruction FU's:              36 | 0.177452
   Type Conversion FU's:              76 | 0.401969

   ========= Static FU's ==========================
   Counter FU's:                    0
   Integer Add/Sub FU's:            0
   Integer Mul/Div FU's:            0
   Integer Shifter FU's:            0
   Integer Bitwise FU's:            0
   Floating Point Float Add/Sub:    0
   Floating Point Double Add/Sub:   0
   Floating Point Float Mul/Div:    0
   Floating Point Double Mul/Div:   0
   0 Cycle Compare FU's:            0
   GEP Instruction FU's:            0
   Type Conversion FU's:            0
   Other:                           0

   ========= Pipeline Register Usage =============
   Total Number of Registers:       235
   Max Register Usage Per Cycle:    90
   Avg Register Usage Per Cycle:    33.924291
   Avg Register Size (Bytes):       5.841147

   ========= Memory Configuration =================
   Cache Bus Ports:                 0
   Shared Cache Size:               0kB
   Local Bus Ports:                 0
   Private SPM Size:                176kB
   Private Read Ports:              0
   Private Write Ports:             0
   Private Read Bus Width:          64
   Private Write Bus Width:         64
       Memory Reads:                0
       Memory Writes:               0
   ========= Power Analysis ======================
   FU Leakage Power:                1.178269 mW 
   FU Dynamic Power:                0.617392 mW 
   FU Total Power:                  1.795662 mW 

   Registers Leakage Power:          0.014185 mW 
   Registers Dynamic Power:          0.101057 mW 
       Register Reads (Bits):        348165
       Register Writes (Bits):       348168
   Registers Total Power:            0.115242 mW

   SPM Leakage Power:               0.089881 mW
   SPM Read Dynamic Power:          6.997296 mW
   SPM Write Dynamic Power:         2.062375 mW
   SPM Total Power:                 9.149552 mW

   SPM Energy Per Read Access:      0.161778 nJ
   SPM Energy Per Write Access:     0.205661 nJ

   Cache Leakage Power:             0.000000 mW
   Cache Read Dynamic Power:        0.000000 mW
   Cache Write Dynamic Power:       0.000000 mW
   Cache Total Power:               0.000000 mW

   Accelerator Power:               1.910904 mW
   Accelerator Power (SPM):         11.060456 mW
   Accelerator Power (Cache):       1.910904 mW

   ========= Area Analysis =======================
   FU Area:                         143348.187500 um^2 (0.143348 mm^2)
   Register Area:                   1152.968140 um^2 (0.001153 mm^2)
   SPM Area:                        3573.642862 um^2 (0.003574 mm^2)
   Cache Area:                      0.000000 um^2 (0.000000 mm^2)

   Accelerator Area:                144501.156250 um^2 (0.144501 mm^2)
   Accelerator Area (SPM):          148074.799112 um^2 (0.148075 mm^2)
   Accelerator Area (Cache):        144501.156250 um^2 (0.144501 mm^2)

   ========= SPM Resizing  =======================
   SPM Optimized Leakage Power:     0.003633 mW
   SPM Opt Area:                    364.024374 um^2

5313491875: global: Timer #0 started at tick 5313491875
5313737500: global: Timer #2 started at tick 5313737500
5314140000: global: Timer #2 stopped at tick 5314140000. Duration: 402500
5314368125: global: DAG ID = 0
5314380625: global: Node ID = 1
5314393750: global: Node deadline difference = -13526
5314406250: global: Predicted memory time / byte = 0.000336098 us/byte
5314418750: global: Predicted memory time = 16.5199 us
5314431250: global: Predicted memory time / byte = 0.000336098 us/byte
5314443750: global: Predicted memory time = 22.0265 us
5314456250: global: Predicted memory time / byte = 0.000209696 us/byte
5314468750: global: Predicted memory time = 10.307 us
5314481250: global: Predicted memory time / byte = 0 us/byte
5314493750: global: Predicted memory time = 0 us
5314506250: global: Predicted memory access size = 0
5314518750: global: Predicted memory access size = 49152
5314531250: global: Predicted memory access size = 0
5314543750: global: Predicted memory access size = 0
5314610000: global: Timer #6 started at tick 5314610000
5315088750: global: Timer #7 started at tick 5315088750
5315845875: system.acctest.convolution0_dma: SRC:0x000000002501c020, DST:0x0000000022000020, LEN:65536
5316101875: global: Timer #7 stopped at tick 5316101875. Duration: 1013125
5316130625: global: Timer #6 stopped at tick 5316130625. Duration: 1520625
5316271875: global: Timer #0 stopped at tick 5316271875. Duration: 2780000
5316286250: global: Number of accelerators running = 2
********************************************************************************
system.acctest.elem_matrix0.compute
   ========= Performance Analysis =============
   Setup Time:                      6.665942seconds
   Simulation Time:                 203.833273seconds
   System Clock:                    1.000000GHz
   Transistor Latency:              1ns
   Runtime:                         10932 cycles
   Runtime:                         10.932000 us
   Stalls:                          1 cycles
   Executed Nodes:                  10930 cycles

********************************************************************************
   ========= Performance Analysis =================
   Setup Time:                      6665941617.000000ns
   Simulation Time:                 203833272633.000000ns
   System Clock:                    1.000000GHz
   Transistor Latency:              0ns
   Runtime:                         10932 cycles
   Runtime:                         0.000001 seconds
   Stalls:                          1 cycles
       Load Only:                   0 cycles
       Store Only:                  1 cycles
       Compute Only:                0 cycles
       Compute & Store:             0 cycles
       Load & Store:                0 cycles
       Load & Compute:              0 cycles
       Load & Compute & Store:      0 cycles
   Executed Nodes:                  10930 cycles
       Load Only:                   0 cycles
       Store Only:                  4 cycles
       Compute Only:                1 cycles
       Compute & Store:             21 cycles
       Load & Store:                0 cycles
       Load & Compute:              6 cycles
       Load & Compute & Store:      10898 cycles

   ========= Runtime FU's ========= (Max | Avg) ===
   Counter FU's:                      32 | 0.046838
   Integer Add/Sub FU's:               0 | 0.000000
   Integer Mul/Div FU's:               0 | 0.000000
   Integer Shifter FU's:               0 | 0.000000
   Integer Bitwise FU's:               1 | 0.000091
   Floating Point Float Add/Sub:       0 | 0.000000
   Floating Point Double Add/Sub:      0 | 0.000000
   Floating Point Float Mul/Div:      34 | 0.044252
   Floating Point Double Mul/Div:      0 | 0.000000
   0 Cycle Compare FU's:             102 | 0.046945
   GEP Instruction FU's:              96 | 0.046835
   Type Conversion FU's:               7 | 0.006782

   ========= Static FU's ==========================
   Counter FU's:                    0
   Integer Add/Sub FU's:            0
   Integer Mul/Div FU's:            0
   Integer Shifter FU's:            0
   Integer Bitwise FU's:            0
   Floating Point Float Add/Sub:    0
   Floating Point Double Add/Sub:   0
   Floating Point Float Mul/Div:    0
   Floating Point Double Mul/Div:   0
   0 Cycle Compare FU's:            0
   GEP Instruction FU's:            0
   Type Conversion FU's:            0
   Other:                           0

   ========= Pipeline Register Usage =============
   Total Number of Registers:       5641
   Max Register Usage Per Cycle:    137
   Avg Register Usage Per Cycle:    12.130992
   Avg Register Size (Bytes):       5.980606

   ========= Memory Configuration =================
   Cache Bus Ports:                 0
   Shared Cache Size:               0kB
   Local Bus Ports:                 0
   Private SPM Size:                256kB
   Private Read Ports:              0
   Private Write Ports:             0
   Private Read Bus Width:          64
   Private Write Bus Width:         64
       Memory Reads:                0
       Memory Writes:               0
   ========= Power Analysis ======================
   FU Leakage Power:                0.045377 mW 
   FU Dynamic Power:                0.142576 mW 
   FU Total Power:                  0.187953 mW 

   Registers Leakage Power:          0.005281 mW 
   Registers Dynamic Power:          0.015326 mW 
       Register Reads (Bits):        132616
       Register Writes (Bits):       133658
   Registers Total Power:            0.020607 mW

   SPM Leakage Power:               0.104100 mW
   SPM Read Dynamic Power:          2.785289 mW
   SPM Write Dynamic Power:         2.044305 mW
   SPM Total Power:                 4.933694 mW

   SPM Energy Per Read Access:      0.170493 nJ
   SPM Energy Per Write Access:     0.218190 nJ

   Cache Leakage Power:             0.000000 mW
   Cache Read Dynamic Power:        0.000000 mW
   Cache Write Dynamic Power:       0.000000 mW
   Cache Total Power:               0.000000 mW

   Accelerator Power:               0.208559 mW
   Accelerator Power (SPM):         5.142254 mW
   Accelerator Power (Cache):       0.208559 mW

   ========= Area Analysis =======================
   FU Area:                         5472.068359 um^2 (0.005472 mm^2)
   Register Area:                   429.271088 um^2 (0.000429 mm^2)
   SPM Area:                        2177.365505 um^2 (0.002177 mm^2)
   Cache Area:                      0.000000 um^2 (0.000000 mm^2)

   Accelerator Area:                5901.339355 um^2 (0.005901 mm^2)
   Accelerator Area (SPM):          8078.704860 um^2 (0.008079 mm^2)
   Accelerator Area (Cache):        5901.339355 um^2 (0.005901 mm^2)

   ========= SPM Resizing  =======================
   SPM Optimized Leakage Power:     0.004248 mW
   SPM Opt Area:                    178.524902 um^2

5323113125: global: Timer #0 started at tick 5323113125
5323353750: global: Timer #2 started at tick 5323353750
5323660625: global: Timer #2 stopped at tick 5323660625. Duration: 306875
5323883125: global: DAG ID = 1
5323895625: global: Node ID = 5
5323908750: global: Node deadline difference = -2294
5323921250: global: Predicted memory time / byte = 0.000336098 us/byte
5323933750: global: Predicted memory time = 44.053 us
5323946250: global: Predicted memory time / byte = 0.000336098 us/byte
5323958750: global: Predicted memory time = 22.0265 us
5323971250: global: Predicted memory time / byte = 0.000182571 us/byte
5323983750: global: Predicted memory time = 11.965 us
5323996250: global: Predicted memory time / byte = 0 us/byte
5324008750: global: Predicted memory time = 0 us
5324021250: global: Predicted memory access size = 0
5324033750: global: Predicted memory access size = 65536
5324046250: global: Predicted memory access size = 0
5324058750: global: Predicted memory access size = 0
5324133750: global: Timer #6 started at tick 5324133750
5324246875: global: Timer #7 started at tick 5324246875
5324897000: system.acctest.elem_matrix0_dma: SRC:0x0000000082178200, DST:0x0000000024010020, LEN:65536
5325020625: global: Timer #7 stopped at tick 5325020625. Duration: 773750
5325035625: global: Timer #6 stopped at tick 5325035625. Duration: 901875
5325123750: global: Timer #0 stopped at tick 5325123750. Duration: 2010625
5325138125: global: Number of accelerators running = 2
5326854875: system.acctest.convolution0_dma: Transfer completed in 11.009 us
5326948750: global: Timer #0 started at tick 5326948750
5327285625: global: Timer #1 started at tick 5327285625
5327421875: global: Timer #1 stopped at tick 5327421875. Duration: 136250
5327660000: global: Timer #6 started at tick 5327660000
5327845625: global: Timer #7 started at tick 5327845625
5328494500: system.acctest.convolution0_dma: SRC:0x00000000820b33c0, DST:0x0000000022030020, LEN:100
5328590500: system.acctest.convolution0_dma: Transfer completed in 0.096 us
5328683750: global: Timer #7 stopped at tick 5328683750. Duration: 838125
5328717500: global: Timer #6 stopped at tick 5328717500. Duration: 1057500
5328819375: global: Timer #0 stopped at tick 5328819375. Duration: 1870625
5328833750: global: Number of accelerators running = 2
5328948125: global: Timer #0 started at tick 5328948125
5329432500: global: Timer #6 started at tick 5329432500
5329491250: global: Timer #7 started at tick 5329491250
5330566875: global: Timer #7 stopped at tick 5330566875. Duration: 1075625
5330621875: global: Timer #6 stopped at tick 5330621875. Duration: 1189375
5330716875: global: Timer #0 stopped at tick 5330716875. Duration: 1768750
5330731250: global: Number of accelerators running = 2
5336859000: system.acctest.elem_matrix0_dma: Transfer completed in 11.962 us
5336943750: global: Timer #0 started at tick 5336943750
5337280000: global: Timer #1 started at tick 5337280000
5337400625: global: Timer #1 stopped at tick 5337400625. Duration: 120625
5337628125: global: Timer #6 started at tick 5337628125
5337698750: global: Timer #7 started at tick 5337698750
5338702500: global: Timer #7 stopped at tick 5338702500. Duration: 1003750
5338753750: global: Timer #6 stopped at tick 5338753750. Duration: 1125625
5338855625: global: Timer #0 stopped at tick 5338855625. Duration: 1911875
5338870000: global: Number of accelerators running = 2
********************************************************************************
system.acctest.elem_matrix0.compute
   ========= Performance Analysis =============
   Setup Time:                      8.182966seconds
   Simulation Time:                 179.481661seconds
   System Clock:                    1.000000GHz
   Transistor Latency:              1ns
   Runtime:                         10932 cycles
   Runtime:                         10.932000 us
   Stalls:                          0 cycles
   Executed Nodes:                  10931 cycles

********************************************************************************
   ========= Performance Analysis =================
   Setup Time:                      8182965567.000000ns
   Simulation Time:                 179481660875.000000ns
   System Clock:                    1.000000GHz
   Transistor Latency:              0ns
   Runtime:                         10932 cycles
   Runtime:                         0.000001 seconds
   Stalls:                          0 cycles
       Load Only:                   0 cycles
       Store Only:                  0 cycles
       Compute Only:                0 cycles
       Compute & Store:             0 cycles
       Load & Store:                0 cycles
       Load & Compute:              0 cycles
       Load & Compute & Store:      0 cycles
   Executed Nodes:                  10931 cycles
       Load Only:                   0 cycles
       Store Only:                  5 cycles
       Compute Only:                1 cycles
       Compute & Store:             21 cycles
       Load & Store:                0 cycles
       Load & Compute:              7 cycles
       Load & Compute & Store:      10897 cycles

   ========= Runtime FU's ========= (Max | Avg) ===
   Counter FU's:                      32 | 0.046838
   Integer Add/Sub FU's:               0 | 0.000000
   Integer Mul/Div FU's:               0 | 0.000000
   Integer Shifter FU's:               0 | 0.000000
   Integer Bitwise FU's:               1 | 0.000091
   Floating Point Float Add/Sub:      34 | 0.044252
   Floating Point Double Add/Sub:      0 | 0.000000
   Floating Point Float Mul/Div:       0 | 0.000000
   Floating Point Double Mul/Div:      0 | 0.000000
   0 Cycle Compare FU's:             102 | 0.046974
   GEP Instruction FU's:              96 | 0.046835
   Type Conversion FU's:               7 | 0.006782

   ========= Static FU's ==========================
   Counter FU's:                    0
   Integer Add/Sub FU's:            0
   Integer Mul/Div FU's:            0
   Integer Shifter FU's:            0
   Integer Bitwise FU's:            0
   Floating Point Float Add/Sub:    0
   Floating Point Double Add/Sub:   0
   Floating Point Float Mul/Div:    0
   Floating Point Double Mul/Div:   0
   0 Cycle Compare FU's:            0
   GEP Instruction FU's:            0
   Type Conversion FU's:            0
   Other:                           0

   ========= Pipeline Register Usage =============
   Total Number of Registers:       5641
   Max Register Usage Per Cycle:    138
   Avg Register Usage Per Cycle:    12.130992
   Avg Register Size (Bytes):       5.980606

   ========= Memory Configuration =================
   Cache Bus Ports:                 0
   Shared Cache Size:               0kB
   Local Bus Ports:                 0
   Private SPM Size:                256kB
   Private Read Ports:              0
   Private Write Ports:             0
   Private Read Bus Width:          64
   Private Write Bus Width:         64
       Memory Reads:                0
       Memory Writes:               0
   ========= Power Analysis ======================
   FU Leakage Power:                0.519269 mW 
   FU Dynamic Power:                0.154621 mW 
   FU Total Power:                  0.673890 mW 

   Registers Leakage Power:          0.005281 mW 
   Registers Dynamic Power:          0.015326 mW 
       Register Reads (Bits):        132616
       Register Writes (Bits):       133658
   Registers Total Power:            0.020607 mW

   SPM Leakage Power:               0.104100 mW
   SPM Read Dynamic Power:          3.776796 mW
   SPM Write Dynamic Power:         2.457440 mW
   SPM Total Power:                 6.338336 mW

   SPM Energy Per Read Access:      0.170493 nJ
   SPM Energy Per Write Access:     0.218190 nJ

   Cache Leakage Power:             0.000000 mW
   Cache Read Dynamic Power:        0.000000 mW
   Cache Write Dynamic Power:       0.000000 mW
   Cache Total Power:               0.000000 mW

   Accelerator Power:               0.694497 mW
   Accelerator Power (SPM):         7.032833 mW
   Accelerator Power (Cache):       0.694497 mW

   ========= Area Analysis =======================
   FU Area:                         70212.562500 um^2 (0.070213 mm^2)
   Register Area:                   429.271088 um^2 (0.000429 mm^2)
   SPM Area:                        2177.365505 um^2 (0.002177 mm^2)
   Cache Area:                      0.000000 um^2 (0.000000 mm^2)

   Accelerator Area:                70641.835938 um^2 (0.070642 mm^2)
   Accelerator Area (SPM):          72819.201442 um^2 (0.072819 mm^2)
   Accelerator Area (Cache):        70641.835938 um^2 (0.070642 mm^2)

   ========= SPM Resizing  =======================
   SPM Optimized Leakage Power:     0.004248 mW
   SPM Opt Area:                    178.524902 um^2

5349608125: global: Timer #0 started at tick 5349608125
5349855625: global: Timer #2 started at tick 5349855625
5350224375: global: Timer #2 stopped at tick 5350224375. Duration: 368750
5350444375: global: DAG ID = 1
5350456875: global: Node ID = 6
5350470000: global: Node deadline difference = -2324
5350482500: global: Predicted memory time / byte = 0.000245298 us/byte
5350495000: global: Predicted memory time = 32.1517 us
5350507500: global: Predicted memory time / byte = 0.000245298 us/byte
5350520000: global: Predicted memory time = 16.0758 us
5350532500: global: Predicted memory time / byte = 0.000182602 us/byte
5350545000: global: Predicted memory time = 11.967 us
5350557500: global: Predicted memory time / byte = 0 us/byte
5350570000: global: Predicted memory time = 0 us
5350582500: global: Predicted memory access size = 0
5350595000: global: Predicted memory access size = 65536
5350607500: global: Predicted memory access size = 0
5350620000: global: Predicted memory access size = 0
5350695625: global: Timer #6 started at tick 5350695625
5350810000: global: Timer #7 started at tick 5350810000
5351830000: global: Timer #7 stopped at tick 5351830000. Duration: 1020000
5352028750: global: Timer #6 stopped at tick 5352028750. Duration: 1333125
5352100625: global: Timer #0 stopped at tick 5352100625. Duration: 2492500
5352115000: global: Number of accelerators running = 2
********************************************************************************
system.acctest.elem_matrix0.compute
   ========= Performance Analysis =============
   Setup Time:                      8.884864seconds
   Simulation Time:                 133.249603seconds
   System Clock:                    1.000000GHz
   Transistor Latency:              1ns
   Runtime:                         8316 cycles
   Runtime:                         8.316000 us
   Stalls:                          82 cycles
   Executed Nodes:                  8233 cycles

********************************************************************************
   ========= Performance Analysis =================
   Setup Time:                      8884863879.000000ns
   Simulation Time:                 133249602872.999985ns
   System Clock:                    1.000000GHz
   Transistor Latency:              0ns
   Runtime:                         8316 cycles
   Runtime:                         0.000001 seconds
   Stalls:                          82 cycles
       Load Only:                   0 cycles
       Store Only:                  77 cycles
       Compute Only:                0 cycles
       Compute & Store:             5 cycles
       Load & Store:                0 cycles
       Load & Compute:              0 cycles
       Load & Compute & Store:      0 cycles
   Executed Nodes:                  8233 cycles
       Load Only:                   0 cycles
       Store Only:                  11 cycles
       Compute Only:                1827 cycles
       Compute & Store:             3453 cycles
       Load & Store:                0 cycles
       Load & Compute:              774 cycles
       Load & Compute & Store:      2168 cycles

   ========= Runtime FU's ========= (Max | Avg) ===
   Counter FU's:                      32 | 0.061572
   Integer Add/Sub FU's:               0 | 0.000000
   Integer Mul/Div FU's:               0 | 0.000000
   Integer Shifter FU's:               0 | 0.000000
   Integer Bitwise FU's:               1 | 0.000120
   Floating Point Float Add/Sub:      80 | 0.302014
   Floating Point Double Add/Sub:      0 | 0.000000
   Floating Point Float Mul/Div:      35 | 0.056511
   Floating Point Double Mul/Div:      0 | 0.000000
   0 Cycle Compare FU's:              15 | 0.024828
   GEP Instruction FU's:              64 | 0.061568
   Type Conversion FU's:              66 | 0.120964

   ========= Static FU's ==========================
   Counter FU's:                    0
   Integer Add/Sub FU's:            0
   Integer Mul/Div FU's:            0
   Integer Shifter FU's:            0
   Integer Bitwise FU's:            0
   Floating Point Float Add/Sub:    0
   Floating Point Double Add/Sub:   0
   Floating Point Float Mul/Div:    0
   Floating Point Double Mul/Div:   0
   0 Cycle Compare FU's:            0
   GEP Instruction FU's:            0
   Type Conversion FU's:            0
   Other:                           0

   ========= Pipeline Register Usage =============
   Total Number of Registers:       5641
   Max Register Usage Per Cycle:    126
   Avg Register Usage Per Cycle:    27.706590
   Avg Register Size (Bytes):       5.993295

   ========= Memory Configuration =================
   Cache Bus Ports:                 0
   Shared Cache Size:               0kB
   Local Bus Ports:                 0
   Private SPM Size:                256kB
   Private Read Ports:              0
   Private Write Ports:             0
   Private Read Bus Width:          64
   Private Write Bus Width:         64
       Memory Reads:                0
       Memory Writes:               0
   ========= Power Analysis ======================
   FU Leakage Power:                1.265749 mW 
   FU Dynamic Power:                1.166708 mW 
   FU Total Power:                  2.432457 mW 

   Registers Leakage Power:          0.011908 mW 
   Registers Dynamic Power:          0.045645 mW 
       Register Reads (Bits):        230408
       Register Writes (Bits):       231961
   Registers Total Power:            0.057553 mW

   SPM Leakage Power:               0.104100 mW
   SPM Read Dynamic Power:          4.599549 mW
   SPM Write Dynamic Power:         2.880682 mW
   SPM Total Power:                 7.584331 mW

   SPM Energy Per Read Access:      0.170493 nJ
   SPM Energy Per Write Access:     0.218190 nJ

   Cache Leakage Power:             0.000000 mW
   Cache Read Dynamic Power:        0.000000 mW
   Cache Write Dynamic Power:       0.000000 mW
   Cache Total Power:               0.000000 mW

   Accelerator Power:               2.490010 mW
   Accelerator Power (SPM):         10.074342 mW
   Accelerator Power (Cache):       2.490010 mW

   ========= Area Analysis =======================
   FU Area:                         170559.593750 um^2 (0.170560 mm^2)
   Register Area:                   967.909180 um^2 (0.000968 mm^2)
   SPM Area:                        2177.365505 um^2 (0.002177 mm^2)
   Cache Area:                      0.000000 um^2 (0.000000 mm^2)

   Accelerator Area:                171527.500000 um^2 (0.171527 mm^2)
   Accelerator Area (SPM):          173704.865505 um^2 (0.173705 mm^2)
   Accelerator Area (Cache):        171527.500000 um^2 (0.171527 mm^2)

   ========= SPM Resizing  =======================
   SPM Optimized Leakage Power:     0.003887 mW
   SPM Opt Area:                    172.850411 um^2

5360116875: global: Timer #0 started at tick 5360116875
5360356875: global: Timer #2 started at tick 5360356875
5360707500: global: Timer #2 stopped at tick 5360707500. Duration: 350625
5360924375: global: DAG ID = 1
5360936875: global: Node ID = 7
5360950000: global: Node deadline difference = -2353
5360962500: global: Predicted memory time / byte = 0.000215019 us/byte
5360975000: global: Predicted memory time = 14.0915 us
5360987500: global: Predicted memory time / byte = 0.000215019 us/byte
5361000000: global: Predicted memory time = 14.0915 us
5361012500: global: Predicted memory time / byte = 0 us/byte
5361025000: global: Predicted memory time = 0 us
5361037500: global: Predicted memory time / byte = 0 us/byte
5361050000: global: Predicted memory time = 0 us
5361062500: global: Predicted memory access size = 0
5361075000: global: Predicted memory access size = 0
5361087500: global: Predicted memory access size = 0
5361100000: global: Predicted memory access size = 0
5361168125: global: Timer #6 started at tick 5361168125
5361284375: global: Timer #7 started at tick 5361284375
5361919500: system.acctest.elem_matrix0_dma: SRC:0x00000000822a8540, DST:0x0000000024010020, LEN:65536
5362050000: global: Timer #7 stopped at tick 5362050000. Duration: 765625
5362072500: global: Timer #6 stopped at tick 5362072500. Duration: 904375
5362144375: global: Timer #0 stopped at tick 5362144375. Duration: 2027500
5362158750: global: Number of accelerators running = 2
5373912500: system.acctest.elem_matrix0_dma: Transfer completed in 11.993 us
5373988125: global: Timer #0 started at tick 5373988125
5374320000: global: Timer #1 started at tick 5374320000
5374448125: global: Timer #1 stopped at tick 5374448125. Duration: 128125
5374670000: global: Timer #6 started at tick 5374670000
5374733125: global: Timer #7 started at tick 5374733125
5375737500: global: Timer #7 stopped at tick 5375737500. Duration: 1004375
5375772500: global: Timer #6 stopped at tick 5375772500. Duration: 1102500
5375863125: global: Timer #0 stopped at tick 5375863125. Duration: 1875000
5375877500: global: Number of accelerators running = 2
********************************************************************************
system.acctest.elem_matrix0.compute
   ========= Performance Analysis =============
   Setup Time:                      6.100940seconds
   Simulation Time:                 164.611473seconds
   System Clock:                    1.000000GHz
   Transistor Latency:              1ns
   Runtime:                         10932 cycles
   Runtime:                         10.932000 us
   Stalls:                          1 cycles
   Executed Nodes:                  10930 cycles

********************************************************************************
   ========= Performance Analysis =================
   Setup Time:                      6100940309.000000ns
   Simulation Time:                 164611473143.000000ns
   System Clock:                    1.000000GHz
   Transistor Latency:              0ns
   Runtime:                         10932 cycles
   Runtime:                         0.000001 seconds
   Stalls:                          1 cycles
       Load Only:                   0 cycles
       Store Only:                  1 cycles
       Compute Only:                0 cycles
       Compute & Store:             0 cycles
       Load & Store:                0 cycles
       Load & Compute:              0 cycles
       Load & Compute & Store:      0 cycles
   Executed Nodes:                  10930 cycles
       Load Only:                   0 cycles
       Store Only:                  4 cycles
       Compute Only:                1 cycles
       Compute & Store:             21 cycles
       Load & Store:                0 cycles
       Load & Compute:              6 cycles
       Load & Compute & Store:      10898 cycles

   ========= Runtime FU's ========= (Max | Avg) ===
   Counter FU's:                      32 | 0.046838
   Integer Add/Sub FU's:               0 | 0.000000
   Integer Mul/Div FU's:               0 | 0.000000
   Integer Shifter FU's:               0 | 0.000000
   Integer Bitwise FU's:               1 | 0.000091
   Floating Point Float Add/Sub:       0 | 0.000000
   Floating Point Double Add/Sub:      0 | 0.000000
   Floating Point Float Mul/Div:      34 | 0.044252
   Floating Point Double Mul/Div:      0 | 0.000000
   0 Cycle Compare FU's:             102 | 0.046945
   GEP Instruction FU's:              96 | 0.046835
   Type Conversion FU's:               7 | 0.006782

   ========= Static FU's ==========================
   Counter FU's:                    0
   Integer Add/Sub FU's:            0
   Integer Mul/Div FU's:            0
   Integer Shifter FU's:            0
   Integer Bitwise FU's:            0
   Floating Point Float Add/Sub:    0
   Floating Point Double Add/Sub:   0
   Floating Point Float Mul/Div:    0
   Floating Point Double Mul/Div:   0
   0 Cycle Compare FU's:            0
   GEP Instruction FU's:            0
   Type Conversion FU's:            0
   Other:                           0

   ========= Pipeline Register Usage =============
   Total Number of Registers:       5641
   Max Register Usage Per Cycle:    137
   Avg Register Usage Per Cycle:    12.130992
   Avg Register Size (Bytes):       5.980606

   ========= Memory Configuration =================
   Cache Bus Ports:                 0
   Shared Cache Size:               0kB
   Local Bus Ports:                 0
   Private SPM Size:                256kB
   Private Read Ports:              0
   Private Write Ports:             0
   Private Read Bus Width:          64
   Private Write Bus Width:         64
       Memory Reads:                0
       Memory Writes:               0
   ========= Power Analysis ======================
   FU Leakage Power:                0.045377 mW 
   FU Dynamic Power:                0.142576 mW 
   FU Total Power:                  0.187953 mW 

   Registers Leakage Power:          0.005281 mW 
   Registers Dynamic Power:          0.015326 mW 
       Register Reads (Bits):        132616
       Register Writes (Bits):       133658
   Registers Total Power:            0.020607 mW

   SPM Leakage Power:               0.104100 mW
   SPM Read Dynamic Power:          4.784107 mW
   SPM Write Dynamic Power:         3.448926 mW
   SPM Total Power:                 8.337133 mW

   SPM Energy Per Read Access:      0.170493 nJ
   SPM Energy Per Write Access:     0.218190 nJ

   Cache Leakage Power:             0.000000 mW
   Cache Read Dynamic Power:        0.000000 mW
   Cache Write Dynamic Power:       0.000000 mW
   Cache Total Power:               0.000000 mW

   Accelerator Power:               0.208559 mW
   Accelerator Power (SPM):         8.545693 mW
   Accelerator Power (Cache):       0.208559 mW

   ========= Area Analysis =======================
   FU Area:                         5472.068359 um^2 (0.005472 mm^2)
   Register Area:                   429.271088 um^2 (0.000429 mm^2)
   SPM Area:                        2177.365505 um^2 (0.002177 mm^2)
   Cache Area:                      0.000000 um^2 (0.000000 mm^2)

   Accelerator Area:                5901.339355 um^2 (0.005901 mm^2)
   Accelerator Area (SPM):          8078.704860 um^2 (0.008079 mm^2)
   Accelerator Area (Cache):        5901.339355 um^2 (0.005901 mm^2)

   ========= SPM Resizing  =======================
   SPM Optimized Leakage Power:     0.004248 mW
   SPM Opt Area:                    178.524902 um^2

5386634375: global: Timer #0 started at tick 5386634375
5386933750: global: Timer #2 started at tick 5386933750
5387262500: global: Timer #2 stopped at tick 5387262500. Duration: 328750
5387479375: global: DAG ID = 1
5387491875: global: Node ID = 8
5387505000: global: Node deadline difference = -2383
5387517500: global: Predicted memory time / byte = 0.000215019 us/byte
5387530000: global: Predicted memory time = 28.183 us
5387542500: global: Predicted memory time / byte = 0.000215019 us/byte
5387555000: global: Predicted memory time = 14.0915 us
5387567500: global: Predicted memory time / byte = 0.000182877 us/byte
5387580000: global: Predicted memory time = 11.985 us
5387592500: global: Predicted memory time / byte = 0 us/byte
5387605000: global: Predicted memory time = 0 us
5387617500: global: Predicted memory access size = 0
5387630000: global: Predicted memory access size = 65536
5387642500: global: Predicted memory access size = 0
5387655000: global: Predicted memory access size = 0
5387723125: global: Timer #6 started at tick 5387723125
5387830000: global: Timer #7 started at tick 5387830000
5388460875: system.acctest.elem_matrix0_dma: SRC:0x00000000821a8380, DST:0x0000000024010020, LEN:65536
5388583750: global: Timer #7 stopped at tick 5388583750. Duration: 753750
5388598750: global: Timer #6 stopped at tick 5388598750. Duration: 875625
5388670625: global: Timer #0 stopped at tick 5388670625. Duration: 2036250
5388685000: global: Number of accelerators running = 2
5400405875: system.acctest.elem_matrix0_dma: Transfer completed in 11.945 us
5400482500: global: Timer #0 started at tick 5400482500
5400806250: global: Timer #1 started at tick 5400806250
5400934375: global: Timer #1 stopped at tick 5400934375. Duration: 128125
5401158125: global: Timer #6 started at tick 5401158125
5401215625: global: Timer #7 started at tick 5401215625
5402217500: global: Timer #7 stopped at tick 5402217500. Duration: 1001875
5402252500: global: Timer #6 stopped at tick 5402252500. Duration: 1094375
5402343125: global: Timer #0 stopped at tick 5402343125. Duration: 1860625
5402357500: global: Number of accelerators running = 2
********************************************************************************
system.acctest.elem_matrix0.compute
   ========= Performance Analysis =============
   Setup Time:                      6.685176seconds
   Simulation Time:                 161.242073seconds
   System Clock:                    1.000000GHz
   Transistor Latency:              1ns
   Runtime:                         10932 cycles
   Runtime:                         10.932000 us
   Stalls:                          0 cycles
   Executed Nodes:                  10931 cycles

********************************************************************************
   ========= Performance Analysis =================
   Setup Time:                      6685175612.000000ns
   Simulation Time:                 161242072525.000000ns
   System Clock:                    1.000000GHz
   Transistor Latency:              0ns
   Runtime:                         10932 cycles
   Runtime:                         0.000001 seconds
   Stalls:                          0 cycles
       Load Only:                   0 cycles
       Store Only:                  0 cycles
       Compute Only:                0 cycles
       Compute & Store:             0 cycles
       Load & Store:                0 cycles
       Load & Compute:              0 cycles
       Load & Compute & Store:      0 cycles
   Executed Nodes:                  10931 cycles
       Load Only:                   0 cycles
       Store Only:                  5 cycles
       Compute Only:                1 cycles
       Compute & Store:             21 cycles
       Load & Store:                0 cycles
       Load & Compute:              7 cycles
       Load & Compute & Store:      10897 cycles

   ========= Runtime FU's ========= (Max | Avg) ===
   Counter FU's:                      32 | 0.046838
   Integer Add/Sub FU's:               0 | 0.000000
   Integer Mul/Div FU's:               0 | 0.000000
   Integer Shifter FU's:               0 | 0.000000
   Integer Bitwise FU's:               1 | 0.000091
   Floating Point Float Add/Sub:      34 | 0.044252
   Floating Point Double Add/Sub:      0 | 0.000000
   Floating Point Float Mul/Div:       0 | 0.000000
   Floating Point Double Mul/Div:      0 | 0.000000
   0 Cycle Compare FU's:             102 | 0.046974
   GEP Instruction FU's:              96 | 0.046835
   Type Conversion FU's:               7 | 0.006782

   ========= Static FU's ==========================
   Counter FU's:                    0
   Integer Add/Sub FU's:            0
   Integer Mul/Div FU's:            0
   Integer Shifter FU's:            0
   Integer Bitwise FU's:            0
   Floating Point Float Add/Sub:    0
   Floating Point Double Add/Sub:   0
   Floating Point Float Mul/Div:    0
   Floating Point Double Mul/Div:   0
   0 Cycle Compare FU's:            0
   GEP Instruction FU's:            0
   Type Conversion FU's:            0
   Other:                           0

   ========= Pipeline Register Usage =============
   Total Number of Registers:       5641
   Max Register Usage Per Cycle:    138
   Avg Register Usage Per Cycle:    12.130992
   Avg Register Size (Bytes):       5.980606

   ========= Memory Configuration =================
   Cache Bus Ports:                 0
   Shared Cache Size:               0kB
   Local Bus Ports:                 0
   Private SPM Size:                256kB
   Private Read Ports:              0
   Private Write Ports:             0
   Private Read Bus Width:          64
   Private Write Bus Width:         64
       Memory Reads:                0
       Memory Writes:               0
   ========= Power Analysis ======================
   FU Leakage Power:                0.519269 mW 
   FU Dynamic Power:                0.154621 mW 
   FU Total Power:                  0.673890 mW 

   Registers Leakage Power:          0.005281 mW 
   Registers Dynamic Power:          0.015326 mW 
       Register Reads (Bits):        132616
       Register Writes (Bits):       133658
   Registers Total Power:            0.020607 mW

   SPM Leakage Power:               0.104100 mW
   SPM Read Dynamic Power:          5.190014 mW
   SPM Write Dynamic Power:         3.846212 mW
   SPM Total Power:                 9.140327 mW

   SPM Energy Per Read Access:      0.170493 nJ
   SPM Energy Per Write Access:     0.218190 nJ

   Cache Leakage Power:             0.000000 mW
   Cache Read Dynamic Power:        0.000000 mW
   Cache Write Dynamic Power:       0.000000 mW
   Cache Total Power:               0.000000 mW

   Accelerator Power:               0.694497 mW
   Accelerator Power (SPM):         9.834824 mW
   Accelerator Power (Cache):       0.694497 mW

   ========= Area Analysis =======================
   FU Area:                         70212.562500 um^2 (0.070213 mm^2)
   Register Area:                   429.271088 um^2 (0.000429 mm^2)
   SPM Area:                        2177.365505 um^2 (0.002177 mm^2)
   Cache Area:                      0.000000 um^2 (0.000000 mm^2)

   Accelerator Area:                70641.835938 um^2 (0.070642 mm^2)
   Accelerator Area (SPM):          72819.201442 um^2 (0.072819 mm^2)
   Accelerator Area (Cache):        70641.835938 um^2 (0.070642 mm^2)

   ========= SPM Resizing  =======================
   SPM Optimized Leakage Power:     0.004248 mW
   SPM Opt Area:                    178.524902 um^2

5413114375: global: Timer #0 started at tick 5413114375
5413351875: global: Timer #2 started at tick 5413351875
5413668125: global: Timer #2 stopped at tick 5413668125. Duration: 316250
5413795625: global: Timer #7 started at tick 5413795625
5414437375: system.acctest.elem_matrix0_dma: SRC:0x0000000024020020, DST:0x0000000082248380, LEN:65536
5414574375: global: Timer #7 stopped at tick 5414574375. Duration: 778750
5414811250: global: Timer #0 stopped at tick 5414811250. Duration: 1696875
5414825625: global: Number of accelerators running = 2
5420774375: system.acctest.elem_matrix0_dma: Transfer completed in 6.337 us
5420850000: global: Timer #0 started at tick 5420850000
5421178125: global: Timer #1 started at tick 5421178125
5421311250: global: Timer #1 stopped at tick 5421311250. Duration: 133125
5421510625: global: DAG ID = 1
5421523125: global: Node ID = 9
5421557500: global: Node deadline difference = -2406
5421570000: global: Predicted memory time / byte = 0.000206983 us/byte
5421582500: global: Predicted memory time = 27.1297 us
5421595000: global: Predicted memory time / byte = 0.000206983 us/byte
5421607500: global: Predicted memory time = 13.5649 us
5421620000: global: Predicted memory time / byte = 0.000182175 us/byte
5421632500: global: Predicted memory time = 11.939 us
5421645000: global: Predicted memory time / byte = 9.65576e-05 us/byte
5421657500: global: Predicted memory time = 6.328 us
5421670000: global: Predicted memory access size = 0
5421682500: global: Predicted memory access size = 65536
5421695000: global: Predicted memory access size = 0
5421707500: global: Predicted memory access size = 65536
5421788125: global: Timer #6 started at tick 5421788125
5421899375: global: Timer #7 started at tick 5421899375
5422534500: system.acctest.elem_matrix0_dma: SRC:0x00000000822a8540, DST:0x0000000024000020, LEN:65536
5422666250: global: Timer #7 stopped at tick 5422666250. Duration: 766875
5422688750: global: Timer #6 stopped at tick 5422688750. Duration: 900625
5422760625: global: Timer #0 stopped at tick 5422760625. Duration: 1910625
5422775000: global: Number of accelerators running = 2
5434523500: system.acctest.elem_matrix0_dma: Transfer completed in 11.989 us
5434606250: global: Timer #0 started at tick 5434606250
5434938750: global: Timer #1 started at tick 5434938750
5435060625: global: Timer #1 stopped at tick 5435060625. Duration: 121875
5435283750: global: Timer #6 started at tick 5435283750
5435363125: global: Timer #7 started at tick 5435363125
5436012375: system.acctest.elem_matrix0_dma: SRC:0x0000000082148200, DST:0x0000000024010020, LEN:65536
5436135625: global: Timer #7 stopped at tick 5436135625. Duration: 772500
5436153125: global: Timer #6 stopped at tick 5436153125. Duration: 869375
5436248125: global: Timer #0 stopped at tick 5436248125. Duration: 1641875
5436262500: global: Number of accelerators running = 2
5447990375: system.acctest.elem_matrix0_dma: Transfer completed in 11.978 us
5448066250: global: Timer #0 started at tick 5448066250
5448391250: global: Timer #1 started at tick 5448391250
5448508125: global: Timer #1 stopped at tick 5448508125. Duration: 116875
5448803125: global: Timer #6 started at tick 5448803125
5448866250: global: Timer #7 started at tick 5448866250
5449883125: global: Timer #7 stopped at tick 5449883125. Duration: 1016875
5449925625: global: Timer #6 stopped at tick 5449925625. Duration: 1122500
5450020625: global: Timer #0 stopped at tick 5450020625. Duration: 1954375
5450035000: global: Number of accelerators running = 2
********************************************************************************
system.acctest.elem_matrix0.compute
   ========= Performance Analysis =============
   Setup Time:                      6.171726seconds
   Simulation Time:                 165.510752seconds
   System Clock:                    1.000000GHz
   Transistor Latency:              1ns
   Runtime:                         10932 cycles
   Runtime:                         10.932000 us
   Stalls:                          1 cycles
   Executed Nodes:                  10930 cycles

********************************************************************************
   ========= Performance Analysis =================
   Setup Time:                      6171726243.000000ns
   Simulation Time:                 165510751642.000000ns
   System Clock:                    1.000000GHz
   Transistor Latency:              0ns
   Runtime:                         10932 cycles
   Runtime:                         0.000001 seconds
   Stalls:                          1 cycles
       Load Only:                   0 cycles
       Store Only:                  1 cycles
       Compute Only:                0 cycles
       Compute & Store:             0 cycles
       Load & Store:                0 cycles
       Load & Compute:              0 cycles
       Load & Compute & Store:      0 cycles
   Executed Nodes:                  10930 cycles
       Load Only:                   0 cycles
       Store Only:                  4 cycles
       Compute Only:                1 cycles
       Compute & Store:             21 cycles
       Load & Store:                0 cycles
       Load & Compute:              6 cycles
       Load & Compute & Store:      10898 cycles

   ========= Runtime FU's ========= (Max | Avg) ===
   Counter FU's:                      32 | 0.046838
   Integer Add/Sub FU's:               0 | 0.000000
   Integer Mul/Div FU's:               0 | 0.000000
   Integer Shifter FU's:               0 | 0.000000
   Integer Bitwise FU's:               1 | 0.000091
   Floating Point Float Add/Sub:       0 | 0.000000
   Floating Point Double Add/Sub:      0 | 0.000000
   Floating Point Float Mul/Div:      34 | 0.044252
   Floating Point Double Mul/Div:      0 | 0.000000
   0 Cycle Compare FU's:             102 | 0.046945
   GEP Instruction FU's:              96 | 0.046835
   Type Conversion FU's:               7 | 0.006782

   ========= Static FU's ==========================
   Counter FU's:                    0
   Integer Add/Sub FU's:            0
   Integer Mul/Div FU's:            0
   Integer Shifter FU's:            0
   Integer Bitwise FU's:            0
   Floating Point Float Add/Sub:    0
   Floating Point Double Add/Sub:   0
   Floating Point Float Mul/Div:    0
   Floating Point Double Mul/Div:   0
   0 Cycle Compare FU's:            0
   GEP Instruction FU's:            0
   Type Conversion FU's:            0
   Other:                           0

   ========= Pipeline Register Usage =============
   Total Number of Registers:       5641
   Max Register Usage Per Cycle:    137
   Avg Register Usage Per Cycle:    12.130992
   Avg Register Size (Bytes):       5.980606

   ========= Memory Configuration =================
   Cache Bus Ports:                 0
   Shared Cache Size:               0kB
   Local Bus Ports:                 0
   Private SPM Size:                256kB
   Private Read Ports:              0
   Private Write Ports:             0
   Private Read Bus Width:          64
   Private Write Bus Width:         64
       Memory Reads:                0
       Memory Writes:               0
   ========= Power Analysis ======================
   FU Leakage Power:                0.045377 mW 
   FU Dynamic Power:                0.142576 mW 
   FU Total Power:                  0.187953 mW 

   Registers Leakage Power:          0.005281 mW 
   Registers Dynamic Power:          0.015326 mW 
       Register Reads (Bits):        132616
       Register Writes (Bits):       133658
   Registers Total Power:            0.020607 mW

   SPM Leakage Power:               0.104100 mW
   SPM Read Dynamic Power:          5.599688 mW
   SPM Write Dynamic Power:         4.937352 mW
   SPM Total Power:                 10.641140 mW

   SPM Energy Per Read Access:      0.170493 nJ
   SPM Energy Per Write Access:     0.218190 nJ

   Cache Leakage Power:             0.000000 mW
   Cache Read Dynamic Power:        0.000000 mW
   Cache Write Dynamic Power:       0.000000 mW
   Cache Total Power:               0.000000 mW

   Accelerator Power:               0.208559 mW
   Accelerator Power (SPM):         10.849700 mW
   Accelerator Power (Cache):       0.208559 mW

   ========= Area Analysis =======================
   FU Area:                         5472.068359 um^2 (0.005472 mm^2)
   Register Area:                   429.271088 um^2 (0.000429 mm^2)
   SPM Area:                        2177.365505 um^2 (0.002177 mm^2)
   Cache Area:                      0.000000 um^2 (0.000000 mm^2)

   Accelerator Area:                5901.339355 um^2 (0.005901 mm^2)
   Accelerator Area (SPM):          8078.704860 um^2 (0.008079 mm^2)
   Accelerator Area (Cache):        5901.339355 um^2 (0.005901 mm^2)

   ========= SPM Resizing  =======================
   SPM Optimized Leakage Power:     0.004248 mW
   SPM Opt Area:                    178.524902 um^2

5460769375: global: Timer #0 started at tick 5460769375
5461006875: global: Timer #2 started at tick 5461006875
5461270000: global: Timer #2 stopped at tick 5461270000. Duration: 263125
5461384375: global: Timer #7 started at tick 5461384375
5462022375: system.acctest.elem_matrix0_dma: SRC:0x0000000024030020, DST:0x00000000821c8380, LEN:65536
5462151250: global: Timer #7 stopped at tick 5462151250. Duration: 766875
5462384375: global: Timer #0 stopped at tick 5462384375. Duration: 1615000
5462398750: global: Number of accelerators running = 2
5468314375: system.acctest.elem_matrix0_dma: Transfer completed in 6.292 us
5468390000: global: Timer #0 started at tick 5468390000
5468718125: global: Timer #1 started at tick 5468718125
5468854375: global: Timer #1 stopped at tick 5468854375. Duration: 136250
5469053750: global: DAG ID = 1
5469066250: global: Node ID = 1
5469088750: global: Node deadline difference = -2416
5469101250: global: Predicted memory time / byte = 0.000336098 us/byte
5469113750: global: Predicted memory time = 44.053 us
5469126250: global: Predicted memory time / byte = 0.000336098 us/byte
5469138750: global: Predicted memory time = 22.0265 us
5469151250: global: Predicted memory time / byte = 0.0001828 us/byte
5469163750: global: Predicted memory time = 23.96 us
5469176250: global: Predicted memory time / byte = 9.5871e-05 us/byte
5469188750: global: Predicted memory time = 6.283 us
5469201250: global: Predicted memory access size = 0
5469213750: global: Predicted memory access size = 131072
5469226250: global: Predicted memory access size = 0
5469238750: global: Predicted memory access size = 65536
5469320000: global: Timer #6 started at tick 5469320000
5469421875: global: Timer #7 started at tick 5469421875
5470056625: system.acctest.elem_matrix0_dma: SRC:0x0000000082248380, DST:0x0000000024000020, LEN:65536
5470180000: global: Timer #7 stopped at tick 5470180000. Duration: 758125
5470195000: global: Timer #6 stopped at tick 5470195000. Duration: 875000
5470266875: global: Timer #0 stopped at tick 5470266875. Duration: 1876875
5470281250: global: Number of accelerators running = 2
5482065625: system.acctest.elem_matrix0_dma: Transfer completed in 12.009 us
5482141250: global: Timer #0 started at tick 5482141250
5482470625: global: Timer #1 started at tick 5482470625
5482594375: global: Timer #1 stopped at tick 5482594375. Duration: 123750
5482818125: global: Timer #6 started at tick 5482818125
5482890000: global: Timer #7 started at tick 5482890000
5483530875: system.acctest.elem_matrix0_dma: SRC:0x0000000082188200, DST:0x0000000024010020, LEN:65536
5483655000: global: Timer #7 stopped at tick 5483655000. Duration: 765000
5483680625: global: Timer #6 stopped at tick 5483680625. Duration: 862500
5483775625: global: Timer #0 stopped at tick 5483775625. Duration: 1634375
5483790000: global: Number of accelerators running = 2
5495536875: system.acctest.elem_matrix0_dma: Transfer completed in 12.006 us
5495612500: global: Timer #0 started at tick 5495612500
5495936875: global: Timer #1 started at tick 5495936875
5496053750: global: Timer #1 stopped at tick 5496053750. Duration: 116875
5496348750: global: Timer #6 started at tick 5496348750
5496406250: global: Timer #7 started at tick 5496406250
5497418125: global: Timer #7 stopped at tick 5497418125. Duration: 1011875
5497456875: global: Timer #6 stopped at tick 5497456875. Duration: 1108125
5497547500: global: Timer #0 stopped at tick 5497547500. Duration: 1935000
5497561875: global: Number of accelerators running = 2
********************************************************************************
system.acctest.elem_matrix0.compute
   ========= Performance Analysis =============
   Setup Time:                      6.031265seconds
   Simulation Time:                 156.258186seconds
   System Clock:                    1.000000GHz
   Transistor Latency:              1ns
   Runtime:                         10932 cycles
   Runtime:                         10.932000 us
   Stalls:                          1 cycles
   Executed Nodes:                  10930 cycles

[...]
   Private SPM Size:                256kB
   Private Read Ports:              0
   Private Write Ports:             0
   Private Read Bus Width:          64
   Private Write Bus Width:         64
       Memory Reads:                0
       Memory Writes:               0
   ========= Power Analysis ======================
   FU Leakage Power:                1.022723 mW 
   FU Dynamic Power:                0.339566 mW 
   FU Total Power:                  1.362289 mW 

   Registers Leakage Power:          0.015530 mW 
   Registers Dynamic Power:          0.092731 mW 
       Register Reads (Bits):        361480
       Register Writes (Bits):       363033
   Registers Total Power:            0.108261 mW

   SPM Leakage Power:               0.104100 mW
   SPM Read Dynamic Power:          23.075128 mW
   SPM Write Dynamic Power:         19.055308 mW
   SPM Total Power:                 42.234536 mW

   SPM Energy Per Read Access:      0.170493 nJ
   SPM Energy Per Write Access:     0.218190 nJ

   Cache Leakage Power:             0.000000 mW
   Cache Read Dynamic Power:        0.000000 mW
   Cache Write Dynamic Power:       0.000000 mW
   Cache Total Power:               0.000000 mW

   Accelerator Power:               1.470550 mW
   Accelerator Power (SPM):         43.705086 mW
   Accelerator Power (Cache):       1.470550 mW

   ========= Area Analysis =======================
   FU Area:                         136477.078125 um^2 (0.136477 mm^2)
   Register Area:                   1262.327881 um^2 (0.001262 mm^2)
   SPM Area:                        2177.365505 um^2 (0.002177 mm^2)
   Cache Area:                      0.000000 um^2 (0.000000 mm^2)

   Accelerator Area:                137739.406250 um^2 (0.137739 mm^2)
   Accelerator Area (SPM):          139916.771755 um^2 (0.139917 mm^2)
   Accelerator Area (Cache):        137739.406250 um^2 (0.137739 mm^2)

   ========= SPM Resizing  =======================
   SPM Optimized Leakage Power:     0.004603 mW
   SPM Opt Area:                    183.901359 um^2

9454564375: global: Timer #0 started at tick 9454564375
9454796250: global: Timer #2 started at tick 9454796250
9455053125: global: Timer #2 stopped at tick 9455053125. Duration: 256875
9455287500: global: DAG ID = 0
9455300000: global: Node ID = 9
9455313125: global: Node deadline difference = -11765
9455325625: global: Predicted memory time / byte = 0.000153651 us/byte
9455338125: global: Predicted memory time = 10.0697 us
9455350625: global: Predicted memory time / byte = 0.000153651 us/byte
9455363125: global: Predicted memory time = 10.0697 us
9455375625: global: Predicted memory time / byte = 0.00018251 us/byte
9455388125: global: Predicted memory time = 11.961 us
9455400625: global: Predicted memory time / byte = 0 us/byte
9455413125: global: Predicted memory time = 0 us
9455425625: global: Predicted memory access size = 0
9455438125: global: Predicted memory access size = 65536
9455450625: global: Predicted memory access size = 0
9455463125: global: Predicted memory access size = 0
9455606250: global: Timer #6 started at tick 9455606250
9456004375: global: Timer #7 started at tick 9456004375
9456635875: system.acctest.canny_non_max0_dma: SRC:0x0000000024030020, DST:0x0000000021000020, LEN:65536
9456850000: global: Timer #7 stopped at tick 9456850000. Duration: 845625
9456920000: global: Timer #6 stopped at tick 9456920000. Duration: 1313750
9457022500: global: Timer #0 stopped at tick 9457022500. Duration: 2458125
9457036875: global: Number of accelerators running = 1
9466896875: system.acctest.canny_non_max0_dma: Transfer completed in 10.261 us
9466991875: global: Timer #0 started at tick 9466991875
9467324375: global: Timer #1 started at tick 9467324375
9467440625: global: Timer #1 stopped at tick 9467440625. Duration: 116250
9467663750: global: Timer #6 started at tick 9467663750
9467906875: global: Timer #7 started at tick 9467906875
9468589500: system.acctest.canny_non_max0_dma: SRC:0x0000000024020020, DST:0x0000000021010020, LEN:65536
9468735000: global: Timer #7 stopped at tick 9468735000. Duration: 828125
9468809375: global: Timer #6 stopped at tick 9468809375. Duration: 1145625
9468915000: global: Timer #0 stopped at tick 9468915000. Duration: 1923125
9468929375: global: Number of accelerators running = 1
9478850500: system.acctest.canny_non_max0_dma: Transfer completed in 10.261 us
9478936250: global: Timer #0 started at tick 9478936250
9479270625: global: Timer #1 started at tick 9479270625
9479394375: global: Timer #1 stopped at tick 9479394375. Duration: 123750
9479675000: global: Timer #6 started at tick 9479675000
9479723125: global: Timer #7 started at tick 9479723125
9480237500: global: Timer #7 stopped at tick 9480237500. Duration: 514375
9480356875: global: Timer #6 stopped at tick 9480356875. Duration: 681875
9480453125: global: Timer #0 stopped at tick 9480453125. Duration: 1516875
9480467500: global: Number of accelerators running = 1
********************************************************************************
system.acctest.canny_non_max0.compute
   ========= Performance Analysis =============
   Setup Time:                      0.100372seconds
   Simulation Time:                 20.188689seconds
   System Clock:                    1.000000GHz
   Transistor Latency:              1ns
   Runtime:                         426290 cycles
   Runtime:                         426.290000 us
   Stalls:                          127008 cycles
   Executed Nodes:                  299281 cycles

********************************************************************************
   ========= Performance Analysis =================
   Setup Time:                      100372227.000000ns
   Simulation Time:                 20188689440.000000ns
   System Clock:                    1.000000GHz
   Transistor Latency:              0ns
   Runtime:                         426290 cycles
   Runtime:                         0.000043 seconds
   Stalls:                          127008 cycles
       Load Only:                   15876 cycles
       Store Only:                  0 cycles
       Compute Only:                111132 cycles
       Compute & Store:             0 cycles
       Load & Store:                0 cycles
       Load & Compute:              0 cycles
       Load & Compute & Store:      0 cycles
   Executed Nodes:                  299281 cycles
       Load Only:                   0 cycles
       Store Only:                  0 cycles
       Compute Only:                235269 cycles
       Compute & Store:             16384 cycles
       Load & Store:                0 cycles
       Load & Compute:              47628 cycles
       Load & Compute & Store:      0 cycles

   ========= Runtime FU's ========= (Max | Avg) ===
   Counter FU's:                       3 | 0.013214
   Integer Add/Sub FU's:               2 | 0.056459
   Integer Mul/Div FU's:               0 | 0.000000
   Integer Shifter FU's:               4 | 0.000300
   Integer Bitwise FU's:               7 | 0.083957
   Floating Point Float Add/Sub:       1 | 0.037242
   Floating Point Double Add/Sub:      0 | 0.000000
   Floating Point Float Mul/Div:       0 | 0.000000
   Floating Point Double Mul/Div:      2 | 0.037242
   0 Cycle Compare FU's:              12 | 0.107784
   GEP Instruction FU's:               4 | 0.054979
   Type Conversion FU's:              11 | 0.039136

   ========= Static FU's ==========================
   Counter FU's:                    0
   Integer Add/Sub FU's:            0
   Integer Mul/Div FU's:            0
   Integer Shifter FU's:            0
   Integer Bitwise FU's:            0
   Floating Point Float Add/Sub:    0
   Floating Point Double Add/Sub:   0
   Floating Point Float Mul/Div:    0
   Floating Point Double Mul/Div:   0
   0 Cycle Compare FU's:            0
   GEP Instruction FU's:            0
   Type Conversion FU's:            0
   Other:                           0

   ========= Pipeline Register Usage =============
   Total Number of Registers:       984
   Max Register Usage Per Cycle:    14
   Avg Register Usage Per Cycle:    1.558559
   Avg Register Size (Bytes):       5.901592

   ========= Memory Configuration =================
   Cache Bus Ports:                 0
   Shared Cache Size:               0kB
   Local Bus Ports:                 0
   Private SPM Size:                256kB
   Private Read Ports:              0
   Private Write Ports:             0
   Private Read Bus Width:          64
   Private Write Bus Width:         64
       Memory Reads:                0
       Memory Writes:               0
   ========= Power Analysis ======================
   FU Leakage Power:                0.154296 mW 
   FU Dynamic Power:                34.240978 mW 
   FU Total Power:                  34.395275 mW 

   Registers Leakage Power:          0.000434 mW 
   Registers Dynamic Power:          0.248413 mW 
       Register Reads (Bits):        664401
       Register Writes (Bits):       681575
   Registers Total Power:            0.248847 mW

   SPM Leakage Power:               0.104100 mW
   SPM Read Dynamic Power:          2.733186 mW
   SPM Write Dynamic Power:         0.953321 mW
   SPM Total Power:                 3.790607 mW

   SPM Energy Per Read Access:      0.170493 nJ
   SPM Energy Per Write Access:     0.218190 nJ

   Cache Leakage Power:             0.000000 mW
   Cache Read Dynamic Power:        0.000000 mW
   Cache Write Dynamic Power:       0.000000 mW
   Cache Total Power:               0.000000 mW

   Accelerator Power:               34.644123 mW
   Accelerator Power (SPM):         38.434730 mW
   Accelerator Power (Cache):       34.644123 mW

   ========= Area Analysis =======================
   FU Area:                         17359.687500 um^2 (0.017360 mm^2)
   Register Area:                   35.299976 um^2 (0.000035 mm^2)
   SPM Area:                        2177.365505 um^2 (0.002177 mm^2)
   Cache Area:                      0.000000 um^2 (0.000000 mm^2)

   Accelerator Area:                17394.988281 um^2 (0.017395 mm^2)
   Accelerator Area (SPM):          19572.353786 um^2 (0.019572 mm^2)
   Accelerator Area (Cache):        17394.988281 um^2 (0.017395 mm^2)

   ========= SPM Resizing  =======================
   SPM Optimized Leakage Power:     0.002053 mW
   SPM Opt Area:                    145.024971 um^2

9906489375: global: Timer #0 started at tick 9906489375
9906796875: global: Timer #2 started at tick 9906796875
9907113125: global: Timer #2 stopped at tick 9907113125. Duration: 316250
9907351250: global: DAG ID = 0
9907363750: global: Node ID = 10
9907376875: global: Node deadline difference = -11759
9907389375: global: Predicted memory time / byte = 0.000149152 us/byte
9907401875: global: Predicted memory time = 19.5496 us
9907414375: global: Predicted memory time / byte = 0.000149152 us/byte
9907426875: global: Predicted memory time = 9.7748 us
9907439375: global: Predicted memory time / byte = 0.000156242 us/byte
9907451875: global: Predicted memory time = 20.479 us
9907464375: global: Predicted memory time / byte = 0 us/byte
9907476875: global: Predicted memory time = 0 us
9907489375: global: Predicted memory access size = 0
9907501875: global: Predicted memory access size = 131072
9907514375: global: Predicted memory access size = 0
9907526875: global: Predicted memory access size = 0
9907670625: global: Timer #6 started at tick 9907670625
9907958750: global: Timer #7 started at tick 9907958750
9908637375: system.acctest.edge_tracking0_dma: SRC:0x0000000021030020, DST:0x0000000023000020, LEN:65536
9908869375: global: Timer #7 stopped at tick 9908869375. Duration: 910625
9908898125: global: Timer #6 stopped at tick 9908898125. Duration: 1227500
9908985625: global: Timer #0 stopped at tick 9908985625. Duration: 2496250
9909000000: global: Number of accelerators running = 1
9918898375: system.acctest.edge_tracking0_dma: Transfer completed in 10.261 us
9918994375: global: Timer #0 started at tick 9918994375
9919326875: global: Timer #1 started at tick 9919326875
9919455625: global: Timer #1 stopped at tick 9919455625. Duration: 128750
9919684375: global: Timer #6 started at tick 9919684375
9919792500: global: Timer #7 started at tick 9919792500
9920559375: global: Timer #7 stopped at tick 9920559375. Duration: 766875
9920603750: global: Timer #6 stopped at tick 9920603750. Duration: 919375
9920704375: global: Timer #0 stopped at tick 9920704375. Duration: 1710000
9920718750: global: Number of accelerators running = 1
********************************************************************************
system.acctest.edge_tracking0.compute
   ========= Performance Analysis =============
   Setup Time:                      0.025529seconds
   Simulation Time:                 65.693019seconds
   System Clock:                    1.000000GHz
   Transistor Latency:              1ns
   Runtime:                         272184 cycles
   Runtime:                         272.184000 us
   Stalls:                          49421 cycles
   Executed Nodes:                  222762 cycles

********************************************************************************
   ========= Performance Analysis =================
   Setup Time:                      25528885.000000ns
   Simulation Time:                 65693018738.000008ns
   System Clock:                    1.000000GHz
   Transistor Latency:              0ns
   Runtime:                         272184 cycles
   Runtime:                         0.000027 seconds
   Stalls:                          49421 cycles
       Load Only:                   49415 cycles
       Store Only:                  0 cycles
       Compute Only:                6 cycles
       Compute & Store:             0 cycles
       Load & Store:                0 cycles
       Load & Compute:              0 cycles
       Load & Compute & Store:      0 cycles
   Executed Nodes:                  222762 cycles
       Load Only:                   0 cycles
       Store Only:                  0 cycles
       Compute Only:                124194 cycles
       Compute & Store:             32768 cycles
       Load & Store:                0 cycles
       Load & Compute:              65800 cycles
       Load & Compute & Store:      0 cycles

   ========= Runtime FU's ========= (Max | Avg) ===
   Counter FU's:                       6 | 0.038059
   Integer Add/Sub FU's:               1 | 0.160722
   Integer Mul/Div FU's:               1 | 0.000007
   Integer Shifter FU's:               2 | 0.000705
   Integer Bitwise FU's:               3 | 0.080144
   Floating Point Float Add/Sub:       0 | 0.000000
   Floating Point Double Add/Sub:      0 | 0.000000
   Floating Point Float Mul/Div:       2 | 0.000011
   Floating Point Double Mul/Div:      0 | 0.000000
   0 Cycle Compare FU's:              14 | 0.116337
   GEP Instruction FU's:               2 | 0.188944
   Type Conversion FU's:               8 | 0.066968

   ========= Static FU's ==========================
   Counter FU's:                    0
   Integer Add/Sub FU's:            0
   Integer Mul/Div FU's:            0
   Integer Shifter FU's:            0
   Integer Bitwise FU's:            0
   Floating Point Float Add/Sub:    0
   Floating Point Double Add/Sub:   0
   Floating Point Float Mul/Div:    0
   Floating Point Double Mul/Div:   0
   0 Cycle Compare FU's:            0
   GEP Instruction FU's:            0
   Type Conversion FU's:            0
   Other:                           0

   ========= Pipeline Register Usage =============
   Total Number of Registers:       545
   Max Register Usage Per Cycle:    10
   Avg Register Usage Per Cycle:    2.209322
   Avg Register Size (Bytes):       5.491002

   ========= Memory Configuration =================
   Cache Bus Ports:                 0
   Shared Cache Size:               0kB
   Local Bus Ports:                 0
   Private SPM Size:                96kB
   Private Read Ports:              0
   Private Write Ports:             0
   Private Read Bus Width:          64
   Private Write Bus Width:         64
       Memory Reads:                0
       Memory Writes:               0
   ========= Power Analysis ======================
   FU Leakage Power:                0.100547 mW 
   FU Dynamic Power:                5.834691 mW 
   FU Total Power:                  5.935238 mW 

   Registers Leakage Power:          0.000808 mW 
   Registers Dynamic Power:          0.267452 mW 
       Register Reads (Bits):        601345
       Register Writes (Bits):       618316
   Registers Total Power:            0.268260 mW

   SPM Leakage Power:               0.036222 mW
   SPM Read Dynamic Power:          1.515707 mW
   SPM Write Dynamic Power:         1.004807 mW
   SPM Total Power:                 2.556736 mW

   SPM Energy Per Read Access:      0.074156 nJ
   SPM Energy Per Write Access:     0.133977 nJ

   Cache Leakage Power:             0.000000 mW
   Cache Read Dynamic Power:        0.000000 mW
   Cache Write Dynamic Power:       0.000000 mW
   Cache Total Power:               0.000000 mW

   Accelerator Power:               6.203497 mW
   Accelerator Power (SPM):         8.760234 mW
   Accelerator Power (Cache):       6.203497 mW

   ========= Area Analysis =======================
   FU Area:                         10667.099609 um^2 (0.010667 mm^2)
   Register Area:                   65.688118 um^2 (0.000066 mm^2)
   SPM Area:                        517.544224 um^2 (0.000518 mm^2)
   Cache Area:                      0.000000 um^2 (0.000000 mm^2)

   Accelerator Area:                10732.788086 um^2 (0.010733 mm^2)
   Accelerator Area (SPM):          11250.332310 um^2 (0.011250 mm^2)
   Accelerator Area (Cache):        10732.788086 um^2 (0.010733 mm^2)

   ========= SPM Resizing  =======================
   SPM Optimized Leakage Power:     0.001770 mW
   SPM Opt Area:                    77.453784 um^2

10192696250: global: Timer #0 started at tick 10192696250
10192911875: global: Timer #7 started at tick 10192911875
10193553750: system.acctest.edge_tracking0_dma: SRC:0x0000000023014020, DST:0x0000000082144200, LEN:16384
10193700625: global: Timer #7 stopped at tick 10193700625. Duration: 788750
10193941875: global: Timer #0 stopped at tick 10193941875. Duration: 1245625
10193956250: global: Number of accelerators running = 1
10195274750: system.acctest.edge_tracking0_dma: Transfer completed in 1.721 us
10195351250: global: Timer #0 started at tick 10195351250
10195702500: global: Timer #1 started at tick 10195702500
10195829375: global: Timer #1 stopped at tick 10195829375. Duration: 126875
10196028750: global: DAG ID = 0
10196041250: global: Node ID = 11
10196065000: global: DAG execution time = 4957
10196078125: global: DAG deadline difference = -11710
10196095625: global: Node deadline difference = -11710
10196108125: global: Predicted memory time / byte = 0.000152268 us/byte
10196120625: global: Predicted memory time = 9.97901 us
10196133125: global: Predicted memory time / byte = 0.000152268 us/byte
10196145625: global: Predicted memory time = 2.49475 us
10196158125: global: Predicted memory time / byte = 0.000155991 us/byte
10196170625: global: Predicted memory time = 10.223 us
10196183125: global: Predicted memory time / byte = 0.000104187 us/byte
10196195625: global: Predicted memory time = 1.707 us
10196208125: global: Predicted memory access size = 0
10196220625: global: Predicted memory access size = 65536
10196233125: global: Predicted memory access size = 0
10196245625: global: Predicted memory access size = 16384
10196356875: global: Timer #0 stopped at tick 10196356875. Duration: 1005625
10196371250: global: Number of accelerators running = 0
10196451250: global: Number of forwards = 79
10196595000: global: Number of colocations = 72
10196613750: global: Number of DAG deadlines met = 2
10196632500: global: Number of node deadlines met = 132
10196666250: global: Total predicted compute time = 4779 us
Exiting @ tick 10196811250 because m5_exit instruction encountered
