gem5 Simulator System.  http://gem5.org
gem5 is copyrighted software; use the --copyright option for details.

gem5 compiled May 11 2023 13:12:28
gem5 started Jun  3 2023 10:36:01
gem5 executing on node4x10a.cs.rochester.edu, pid 76369
command line: /u/sgupta45/gem5-SALAM/build/ARM/gem5_bus.opt --debug-flags=HWACC,CommInterface,LLVMInterface,StreamDma,NoncoherentDma,TickTimer,SchedulerStats --outdir=BM_ARM_OUT/comb_pred_1/canny_0_deblur_0_gru_0_harris_1_lstm_0_LAX_MEM_PRED_AVERAGE_15 configs/SALAM/scheduler.py --mem-size=4GB --mem-type=LPDDR5_6400_1x16_BG_BL32 --kernel=/u/sgupta45/gem5-SALAM/benchmarks/scheduler/sw/bin_comb_pred_1/canny_0_deblur_0_gru_0_harris_1_lstm_0_LAX_MEM_PRED_AVERAGE_15.elf --vans-config-path=/u/sgupta45/VANS/config --disk-image=/u/sgupta45/gem5-SALAM/baremetal/common/fake.iso --machine-type=VExpress_GEM5_V1 --dtb-file=none --bare-metal --cpu-type=ex5_LITTLE --cpu-clock=1.6GHz --accpath=/u/sgupta45/gem5-SALAM/benchmarks --caches --cacheline_size=64 --l1d_size=32kB --l1d_assoc=4 --l1i_size=32kB --l1i_assoc=2

Global frequency set at 1000000000000 ticks per second
Cycle Counts Loaded!
Cycle Counts Loaded!
Cycle Counts Loaded!
Cycle Counts Loaded!
Cycle Counts Loaded!
Cycle Counts Loaded!
Cycle Counts Loaded!
Cycle Counts Loaded!
Cycle Counts Loaded!
Cycle Counts Loaded!
Cycle Counts Loaded!
**** REAL SIMULATION ****
14275625: global: Timer #2 started at tick 14275625
14952500: global: Timer #2 stopped at tick 14952500. Duration: 676875
20018750: system.acctest.isp0_dma: SRC:0x0000000082018940, DST:0x0000000027000020, LEN:16900
20563125: global: Number of accelerators running = 1
23072750: system.acctest.isp0_dma: Transfer completed in 3.054 us
23658750: global: Timer #0 started at tick 23658750
24050625: global: Timer #1 started at tick 24050625
24904375: global: Timer #1 stopped at tick 24904375. Duration: 853750
27010000: global: Timer #0 stopped at tick 27010000. Duration: 3351250
27069375: global: Number of accelerators running = 1
********************************************************************************
system.acctest.isp0.compute
   ========= Performance Analysis =============
   Setup Time:                      0.154387seconds
   Simulation Time:                 333.359seconds
   System Clock:                    1GHz
   Transistor Latency:              1ns
   Runtime:                         34882 cycles
   Runtime:                         34.882 us
   Stalls:                          1 cycles
   Executed Nodes:                  34880 cycles

********************************************************************************
   ========= Performance Analysis =================
   Setup Time:                      1.54387e+08ns
   Simulation Time:                 3.33359e+11ns
   System Clock:                    1GHz
   Transistor Latency:              0ns
   Runtime:                         34882 cycles
   Runtime:                         3.4882e-06 seconds
   Stalls:                          1 cycles
       Load Only:                   0 cycles
       Store Only:                  1 cycles
       Compute Only:                0 cycles
       Compute & Store:             0 cycles
       Load & Store:                0 cycles
       Load & Compute:              0 cycles
       Load & Compute & Store:      0 cycles
   Executed Nodes:                  34880 cycles
       Load Only:                   0 cycles
       Store Only:                  1 cycles
       Compute Only:                3453 cycles
       Compute & Store:             19014 cycles
       Load & Store:                0 cycles
       Load & Compute:              2467 cycles
       Load & Compute & Store:      9945 cycles

   ========= Runtime FU's ========= (Max | Avg) ===
   Counter FU's:                      10 | 0.118075
   Integer Add/Sub FU's:              76 | 0.082082
   Integer Mul/Div FU's:              11 | 0.043888
   Integer Shifter FU's:              42 | 0.055974
   Integer Bitwise FU's:               4 | 0.059443
   Floating Point Float Add/Sub:      53 | 0.116839
   Floating Point Double Add/Sub:      0 | 0.000000
   Floating Point Float Mul/Div:      76 | 0.625626
   Floating Point Double Mul/Div:      0 | 0.000000
   0 Cycle Compare FU's:              85 | 0.664984
   GEP Instruction FU's:              33 | 0.117424
   Type Conversion FU's:             110 | 0.379700

   ========= Static FU's ==========================
   Counter FU's:                    0
   Integer Add/Sub FU's:            0
   Integer Mul/Div FU's:            0
   Integer Shifter FU's:            0
   Integer Bitwise FU's:            0
   Floating Point Float Add/Sub:    0
   Floating Point Double Add/Sub:   0
   Floating Point Float Mul/Div:    0
   Floating Point Double Mul/Div:   0
   0 Cycle Compare FU's:            0
   GEP Instruction FU's:            0
   Type Conversion FU's:            0
   Other:                           0

   ========= Pipeline Register Usage =============
   Total Number of Registers:       1620
   Max Register Usage Per Cycle:    151
   Avg Register Usage Per Cycle:    58.744711
   Avg Register Size (Bytes):       5.073357

   ========= Memory Configuration =================
   Cache Bus Ports:                 0
   Shared Cache Size:               0kB
   Local Bus Ports:                 0
   Private SPM Size:                112kB
   Private Read Ports:              0
   Private Write Ports:             0
   Private Read Bus Width:          64
   Private Write Bus Width:         64
       Memory Reads:                0
       Memory Writes:               0
   ========= Power Analysis ======================
   FU Leakage Power:                1.637787 mW 
   FU Dynamic Power:                9.655087 mW 
   FU Total Power:                  11.292874 mW 

   Registers Leakage Power:          0.021654 mW 
   Registers Dynamic Power:          3.085961 mW 
       Register Reads (Bits):        2049133
       Register Writes (Bits):       2049168
   Registers Total Power:            3.107615 mW

   SPM Leakage Power:               0.061081 mW
   SPM Read Dynamic Power:          11.103730 mW
   SPM Write Dynamic Power:         7.385230 mW
   SPM Total Power:                 18.550041 mW

   Cache Leakage Power:             0.000000 mW
   Cache Read Dynamic Power:        0.000000 mW
   Cache Write Dynamic Power:       0.000000 mW
   Cache Total Power:               0.000000 mW

   Accelerator Power:               14.400490 mW
   Accelerator Power (SPM):         32.950531 mW
   Accelerator Power (Cache):       14.400490 mW

   ========= Area Analysis =======================
   FU Area:                         176023.796875 um^2 (0.176024 mm^2)
   Register Area:                   1760.064941 um^2 (0.001760 mm^2)
   SPM Area:                        2165.394891 um^2 (0.002165 mm^2)
   Cache Area:                      0.000000 um^2 (0.000000 mm^2)

   Accelerator Area:                177783.859375 um^2 (0.177784 mm^2)
   Accelerator Area (SPM):          179949.254266 um^2 (0.179949 mm^2)
   Accelerator Area (Cache):        177783.859375 um^2 (0.177784 mm^2)

   ========= SPM Resizing  =======================
   SPM Optimized Leakage Power:     0.005964 mW
   SPM Opt Area:                    422.108128 um^2

61467500: global: Timer #0 started at tick 61467500
61782500: global: Timer #2 started at tick 61782500
62547500: global: Timer #2 stopped at tick 62547500. Duration: 765000
63336250: global: DAG ID = 0
63355625: global: Node ID = 0
63373750: global: Node deadline difference = -13978
63435000: global: Predicted memory time / byte = 0 us/byte
63453125: global: Predicted memory time = 0 us
63471250: global: Predicted memory time / byte = 0 us/byte
63489375: global: Predicted memory time = 0 us
63507500: global: Predicted memory time / byte = 0.000223195 us/byte
63569375: global: Predicted memory time = 3 us
63587500: global: Predicted memory time / byte = 0 us/byte
63605625: global: Predicted memory time = 0 us
64903750: system.acctest.grayscale0_dma: SRC:0x0000000027004224, DST:0x0000000025000020, LEN:49152
65330000: global: Timer #0 stopped at tick 65330000. Duration: 3862500
65344375: global: Number of accelerators running = 1
72604750: system.acctest.grayscale0_dma: Transfer completed in 7.701 us
72699375: global: Timer #0 started at tick 72699375
72748125: global: Timer #1 started at tick 72748125
73053750: global: Timer #1 stopped at tick 73053750. Duration: 305625
74495000: global: Timer #0 stopped at tick 74495000. Duration: 1795625
74509375: global: Number of accelerators running = 1
********************************************************************************
system.acctest.grayscale0.compute
   ========= Performance Analysis =============
   Setup Time:                      0.006012seconds
   Simulation Time:                 95.981913seconds
   System Clock:                    1.000000GHz
   Transistor Latency:              1ns
   Runtime:                         10263 cycles
   Runtime:                         10.263000 us
   Stalls:                          1 cycles
   Executed Nodes:                  10261 cycles

********************************************************************************
   ========= Performance Analysis =================
   Setup Time:                      6011648.000000ns
   Simulation Time:                 95981912760.000000ns
   System Clock:                    1.000000GHz
   Transistor Latency:              0ns
   Runtime:                         10263 cycles
   Runtime:                         0.000001 seconds
   Stalls:                          1 cycles
       Load Only:                   0 cycles
       Store Only:                  1 cycles
       Compute Only:                0 cycles
       Compute & Store:             0 cycles
       Load & Store:                0 cycles
       Load & Compute:              0 cycles
       Load & Compute & Store:      0 cycles
   Executed Nodes:                  10261 cycles
       Load Only:                   0 cycles
       Store Only:                  1 cycles
       Compute Only:                88 cycles
       Compute & Store:             344 cycles
       Load & Store:                0 cycles
       Load & Compute:              1981 cycles
       Load & Compute & Store:      7847 cycles

   ========= Runtime FU's ========= (Max | Avg) ===
   Counter FU's:                      24 | 0.199556
   Integer Add/Sub FU's:               0 | 0.000000
   Integer Mul/Div FU's:               8 | 0.199552
   Integer Shifter FU's:               0 | 0.000000
   Integer Bitwise FU's:               1 | 0.000097
   Floating Point Float Add/Sub:      49 | 0.114264
   Floating Point Double Add/Sub:      0 | 0.000000
   Floating Point Float Mul/Div:      42 | 0.114129
   Floating Point Double Mul/Div:      0 | 0.000000
   0 Cycle Compare FU's:               9 | 0.066626
   GEP Instruction FU's:              36 | 0.177452
   Type Conversion FU's:              76 | 0.401969

   ========= Static FU's ==========================
   Counter FU's:                    0
   Integer Add/Sub FU's:            0
   Integer Mul/Div FU's:            0
   Integer Shifter FU's:            0
   Integer Bitwise FU's:            0
   Floating Point Float Add/Sub:    0
   Floating Point Double Add/Sub:   0
   Floating Point Float Mul/Div:    0
   Floating Point Double Mul/Div:   0
   0 Cycle Compare FU's:            0
   GEP Instruction FU's:            0
   Type Conversion FU's:            0
   Other:                           0

   ========= Pipeline Register Usage =============
   Total Number of Registers:       235
   Max Register Usage Per Cycle:    90
   Avg Register Usage Per Cycle:    33.924291
   Avg Register Size (Bytes):       5.841147

   ========= Memory Configuration =================
   Cache Bus Ports:                 0
   Shared Cache Size:               0kB
   Local Bus Ports:                 0
   Private SPM Size:                176kB
   Private Read Ports:              0
   Private Write Ports:             0
   Private Read Bus Width:          64
   Private Write Bus Width:         64
       Memory Reads:                0
       Memory Writes:               0
   ========= Power Analysis ======================
   FU Leakage Power:                1.178269 mW 
   FU Dynamic Power:                0.617392 mW 
   FU Total Power:                  1.795662 mW 

   Registers Leakage Power:          0.014185 mW 
   Registers Dynamic Power:          0.101057 mW 
       Register Reads (Bits):        348165
       Register Writes (Bits):       348168
   Registers Total Power:            0.115242 mW

   SPM Leakage Power:               0.089881 mW
   SPM Read Dynamic Power:          6.997296 mW
   SPM Write Dynamic Power:         2.062375 mW
   SPM Total Power:                 9.149552 mW

   Cache Leakage Power:             0.000000 mW
   Cache Read Dynamic Power:        0.000000 mW
   Cache Write Dynamic Power:       0.000000 mW
   Cache Total Power:               0.000000 mW

   Accelerator Power:               1.910904 mW
   Accelerator Power (SPM):         11.060456 mW
   Accelerator Power (Cache):       1.910904 mW

   ========= Area Analysis =======================
   FU Area:                         143348.187500 um^2 (0.143348 mm^2)
   Register Area:                   1152.968140 um^2 (0.001153 mm^2)
   SPM Area:                        3573.642862 um^2 (0.003574 mm^2)
   Cache Area:                      0.000000 um^2 (0.000000 mm^2)

   Accelerator Area:                144501.156250 um^2 (0.144501 mm^2)
   Accelerator Area (SPM):          148074.799112 um^2 (0.148075 mm^2)
   Accelerator Area (Cache):        144501.156250 um^2 (0.144501 mm^2)

   ========= SPM Resizing  =======================
   SPM Optimized Leakage Power:     0.003633 mW
   SPM Opt Area:                    364.024374 um^2

84416875: global: Timer #0 started at tick 84416875
84590000: global: Timer #2 started at tick 84590000
84804375: global: Timer #2 stopped at tick 84804375. Duration: 214375
84839375: global: Timer #2 started at tick 84839375
85238750: global: Timer #2 stopped at tick 85238750. Duration: 399375
98650875: system.acctest.grayscale0_dma: SRC:0x000000002500c020, DST:0x0000000082028d00, LEN:65536
100564000: system.acctest.convolution0_dma: SRC:0x000000002500c020, DST:0x0000000022000020, LEN:65536
100962500: global: Timer #0 stopped at tick 100962500. Duration: 16545625
100976875: global: Number of accelerators running = 2
110005875: system.acctest.grayscale0_dma: Transfer completed in 11.355 us
110079375: global: Timer #0 started at tick 110079375
110395625: global: Timer #1 started at tick 110395625
111022500: global: Timer #1 stopped at tick 111022500. Duration: 626875
111443750: global: DAG ID = 0
111506250: global: Node ID = 1
111577500: global: Node deadline difference = -13967
111597500: global: Predicted memory time / byte = 0.000223195 us/byte
111615625: global: Predicted memory time = 25.5978 us
111633750: global: Predicted memory time / byte = 0.000223195 us/byte
111651875: global: Predicted memory time = 25.5978 us
111670000: global: Predicted memory time / byte = 0.000155904 us/byte
111688125: global: Predicted memory time = 7 us
111706250: global: Predicted memory time / byte = 0.000175079 us/byte
111724375: global: Predicted memory time = 11 us
111853750: global: Timer #0 stopped at tick 111853750. Duration: 1774375
111868125: global: Number of accelerators running = 1
113749000: system.acctest.convolution0_dma: Transfer completed in 13.185 us
113888125: global: Timer #0 started at tick 113888125
113941250: global: Timer #1 started at tick 113941250
114225000: global: Timer #1 stopped at tick 114225000. Duration: 283750
115816625: system.acctest.convolution0_dma: SRC:0x0000000082039000, DST:0x0000000022030020, LEN:36
115849625: system.acctest.convolution0_dma: Transfer completed in 0.033 us
116066875: global: Timer #0 stopped at tick 116066875. Duration: 2178750
116081250: global: Number of accelerators running = 1
116195625: global: Timer #0 started at tick 116195625
117554375: global: Timer #0 stopped at tick 117554375. Duration: 1358750
117568750: global: Number of accelerators running = 1
********************************************************************************
system.acctest.convolution0.compute
   ========= Performance Analysis =============
   Setup Time:                      0.442822seconds
   Simulation Time:                 85.286952seconds
   System Clock:                    1.000000GHz
   Transistor Latency:              1ns
   Runtime:                         637329 cycles
   Runtime:                         637.329000 us
   Stalls:                          7 cycles
   Executed Nodes:                  637321 cycles

********************************************************************************
   ========= Performance Analysis =================
   Setup Time:                      442821663.000000ns
   Simulation Time:                 85286951836.000000ns
   System Clock:                    1.000000GHz
   Transistor Latency:              0ns
   Runtime:                         637329 cycles
   Runtime:                         0.000064 seconds
   Stalls:                          7 cycles
       Load Only:                   0 cycles
       Store Only:                  1 cycles
       Compute Only:                6 cycles
       Compute & Store:             0 cycles
       Load & Store:                0 cycles
       Load & Compute:              0 cycles
       Load & Compute & Store:      0 cycles
   Executed Nodes:                  637321 cycles
       Load Only:                   0 cycles
       Store Only:                  1 cycles
       Compute Only:                475397 cycles
       Compute & Store:             15999 cycles
       Load & Store:                0 cycles
       Load & Compute:              145540 cycles
       Load & Compute & Store:      384 cycles

   ========= Runtime FU's ========= (Max | Avg) ===
   Counter FU's:                       3 | 0.119701
   Integer Add/Sub FU's:               4 | 0.197730
   Integer Mul/Div FU's:               1 | 0.076720
   Integer Shifter FU's:              10 | 0.007714
   Integer Bitwise FU's:               2 | 0.192204
   Floating Point Float Add/Sub:       4 | 0.202424
   Floating Point Double Add/Sub:      0 | 0.000000
   Floating Point Float Mul/Div:       2 | 0.114482
   Floating Point Double Mul/Div:      0 | 0.000000
   0 Cycle Compare FU's:              40 | 0.135811
   GEP Instruction FU's:               2 | 0.241815
   Type Conversion FU's:               9 | 0.181785

   ========= Static FU's ==========================
   Counter FU's:                    0
   Integer Add/Sub FU's:            0
   Integer Mul/Div FU's:            0
   Integer Shifter FU's:            0
   Integer Bitwise FU's:            0
   Floating Point Float Add/Sub:    0
   Floating Point Double Add/Sub:   0
   Floating Point Float Mul/Div:    0
   Floating Point Double Mul/Div:   0
   0 Cycle Compare FU's:            0
   GEP Instruction FU's:            0
   Type Conversion FU's:            0
   Other:                           0

   ========= Pipeline Register Usage =============
   Total Number of Registers:       1702
   Max Register Usage Per Cycle:    17
   Avg Register Usage Per Cycle:    6.079275
   Avg Register Size (Bytes):       5.490795

   ========= Memory Configuration =================
   Cache Bus Ports:                 0
   Shared Cache Size:               0kB
   Local Bus Ports:                 0
   Private SPM Size:                192kB
   Private Read Ports:              0
   Private Write Ports:             0
   Private Read Bus Width:          64
   Private Write Bus Width:         64
       Memory Reads:                0
       Memory Writes:               0
   ========= Power Analysis ======================
   FU Leakage Power:                0.181658 mW 
   FU Dynamic Power:                392.771942 mW 
   FU Total Power:                  392.953613 mW 

   Registers Leakage Power:          0.002424 mW 
   Registers Dynamic Power:          12.192513 mW 
       Register Reads (Bits):        3874498
       Register Writes (Bits):       4041055
   Registers Total Power:            12.194937 mW

   SPM Leakage Power:               0.078311 mW
   SPM Read Dynamic Power:          7.281672 mW
   SPM Write Dynamic Power:         0.953321 mW
   SPM Total Power:                 8.313304 mW

   Cache Leakage Power:             0.000000 mW
   Cache Read Dynamic Power:        0.000000 mW
   Cache Write Dynamic Power:       0.000000 mW
   Cache Total Power:               0.000000 mW

   Accelerator Power:               405.148560 mW
   Accelerator Power (SPM):         413.461864 mW
   Accelerator Power (Cache):       405.148560 mW

   ========= Area Analysis =======================
   FU Area:                         20868.273438 um^2 (0.020868 mm^2)
   Register Area:                   197.056931 um^2 (0.000197 mm^2)
   SPM Area:                        1748.188735 um^2 (0.001748 mm^2)
   Cache Area:                      0.000000 um^2 (0.000000 mm^2)

   Accelerator Area:                21065.330078 um^2 (0.021065 mm^2)
   Accelerator Area (SPM):          22813.518813 um^2 (0.022814 mm^2)
   Accelerator Area (Cache):        21065.330078 um^2 (0.021065 mm^2)

   ========= SPM Resizing  =======================
   SPM Optimized Leakage Power:     0.002053 mW
   SPM Opt Area:                    145.024971 um^2

754733125: global: Timer #0 started at tick 754733125
754908125: global: Timer #2 started at tick 754908125
755137500: global: Timer #2 stopped at tick 755137500. Duration: 229375
768593750: system.acctest.convolution0_dma: SRC:0x0000000022010020, DST:0x0000000082039080, LEN:65536
770672000: system.acctest.elem_matrix0_dma: SRC:0x0000000022010020, DST:0x0000000024000020, LEN:65536
771031875: global: Timer #0 stopped at tick 771031875. Duration: 16298750
771046250: global: Number of accelerators running = 2
779174750: system.acctest.convolution0_dma: Transfer completed in 10.581 us
779248125: global: Timer #0 started at tick 779248125
779292500: global: Timer #1 started at tick 779292500
779595625: global: Timer #1 stopped at tick 779595625. Duration: 303125
779938750: global: DAG ID = 0
779952500: global: Node ID = 2
779971875: global: Node deadline difference = -13967
779984375: global: Predicted memory time / byte = 0.000173121 us/byte
779996875: global: Predicted memory time = 22.6976 us
780009375: global: Predicted memory time / byte = 0.000173121 us/byte
780021875: global: Predicted memory time = 22.6976 us
780034375: global: Predicted memory time / byte = 0.000201401 us/byte
780046875: global: Predicted memory time = 13 us
780059375: global: Predicted memory time / byte = 0.000161072 us/byte
780071875: global: Predicted memory time = 10 us
783887000: system.acctest.elem_matrix0_dma: Transfer completed in 13.215 us
793624500: system.acctest.convolution0_dma: SRC:0x0000000082028d00, DST:0x0000000022000020, LEN:65536
793883750: global: Timer #0 stopped at tick 793883750. Duration: 14635625
793898125: global: Number of accelerators running = 2
794025625: global: Timer #0 started at tick 794025625
794084375: global: Timer #1 started at tick 794084375
794364375: global: Timer #1 stopped at tick 794364375. Duration: 280000
796487500: global: Timer #0 stopped at tick 796487500. Duration: 2461875
796501875: global: Number of accelerators running = 2
********************************************************************************
system.acctest.elem_matrix0.compute
   ========= Performance Analysis =============
   Setup Time:                      3.723144seconds
   Simulation Time:                 52.597996seconds
   System Clock:                    1.000000GHz
   Transistor Latency:              1ns
   Runtime:                         8199 cycles
   Runtime:                         8.199000 us
   Stalls:                          2729 cycles
   Executed Nodes:                  5469 cycles

********************************************************************************
   ========= Performance Analysis =================
   Setup Time:                      3723144183.000000ns
   Simulation Time:                 52597996041.000000ns
   System Clock:                    1.000000GHz
   Transistor Latency:              0ns
   Runtime:                         8199 cycles
   Runtime:                         0.000001 seconds
   Stalls:                          2729 cycles
       Load Only:                   0 cycles
       Store Only:                  2729 cycles
       Compute Only:                0 cycles
       Compute & Store:             0 cycles
       Load & Store:                0 cycles
       Load & Compute:              0 cycles
       Load & Compute & Store:      0 cycles
   Executed Nodes:                  5469 cycles
       Load Only:                   0 cycles
       Store Only:                  4 cycles
       Compute Only:                1 cycles
       Compute & Store:             11 cycles
       Load & Store:                0 cycles
       Load & Compute:              6 cycles
       Load & Compute & Store:      5447 cycles

   ========= Runtime FU's ========= (Max | Avg) ===
   Counter FU's:                      32 | 0.062450
   Integer Add/Sub FU's:               0 | 0.000000
   Integer Mul/Div FU's:               0 | 0.000000
   Integer Shifter FU's:               0 | 0.000000
   Integer Bitwise FU's:               1 | 0.000122
   Floating Point Float Add/Sub:       0 | 0.000000
   Floating Point Double Add/Sub:      0 | 0.000000
   Floating Point Float Mul/Div:      35 | 0.057652
   Floating Point Double Mul/Div:      0 | 0.000000
   0 Cycle Compare FU's:              15 | 0.025182
   GEP Instruction FU's:              64 | 0.062447
   Type Conversion FU's:               7 | 0.009043

   ========= Static FU's ==========================
   Counter FU's:                    0
   Integer Add/Sub FU's:            0
   Integer Mul/Div FU's:            0
   Integer Shifter FU's:            0
   Integer Bitwise FU's:            0
   Floating Point Float Add/Sub:    0
   Floating Point Double Add/Sub:   0
   Floating Point Float Mul/Div:    0
   Floating Point Double Mul/Div:   0
   0 Cycle Compare FU's:            0
   GEP Instruction FU's:            0
   Type Conversion FU's:            0
   Other:                           0

   ========= Pipeline Register Usage =============
   Total Number of Registers:       5641
   Max Register Usage Per Cycle:    104
   Avg Register Usage Per Cycle:    10.117331
   Avg Register Size (Bytes):       6.376398

   ========= Memory Configuration =================
   Cache Bus Ports:                 0
   Shared Cache Size:               0kB
   Local Bus Ports:                 0
   Private SPM Size:                256kB
   Private Read Ports:              0
   Private Write Ports:             0
   Private Read Bus Width:          64
   Private Write Bus Width:         64
       Memory Reads:                0
       Memory Writes:               0
   ========= Power Analysis ======================
   FU Leakage Power:                0.045377 mW 
   FU Dynamic Power:                0.051978 mW 
   FU Total Power:                  0.097355 mW 

   Registers Leakage Power:          0.004692 mW 
   Registers Dynamic Power:          0.006422 mW 
       Register Reads (Bits):        82952
       Register Writes (Bits):       84505
   Registers Total Power:            0.011115 mW

   SPM Leakage Power:               0.104100 mW
   SPM Read Dynamic Power:          0.905625 mW
   SPM Write Dynamic Power:         0.953321 mW
   SPM Total Power:                 1.963046 mW

   Cache Leakage Power:             0.000000 mW
   Cache Read Dynamic Power:        0.000000 mW
   Cache Write Dynamic Power:       0.000000 mW
   Cache Total Power:               0.000000 mW

   Accelerator Power:               0.108470 mW
   Accelerator Power (SPM):         2.071516 mW
   Accelerator Power (Cache):       0.108470 mW

   ========= Area Analysis =======================
   FU Area:                         5472.068359 um^2 (0.005472 mm^2)
   Register Area:                   381.399994 um^2 (0.000381 mm^2)
   SPM Area:                        2177.365505 um^2 (0.002177 mm^2)
   Cache Area:                      0.000000 um^2 (0.000000 mm^2)

   Accelerator Area:                5853.468262 um^2 (0.005853 mm^2)
   Accelerator Area (SPM):          8030.833767 um^2 (0.008031 mm^2)
   Accelerator Area (Cache):        5853.468262 um^2 (0.005853 mm^2)

   ========= SPM Resizing  =======================
   SPM Optimized Leakage Power:     0.003237 mW
   SPM Opt Area:                    162.973445 um^2

804465625: global: Timer #0 started at tick 804465625
804649375: global: Timer #2 started at tick 804649375
804860625: global: Timer #2 stopped at tick 804860625. Duration: 211250
805585500: system.acctest.convolution0_dma: Transfer completed in 11.961 us
818070875: system.acctest.elem_matrix0_dma: SRC:0x0000000024010020, DST:0x0000000082059900, LEN:65536
818454375: global: Timer #0 stopped at tick 818454375. Duration: 13988750
818468750: global: Number of accelerators running = 2
818586250: global: Timer #0 started at tick 818586250
818635000: global: Timer #1 started at tick 818635000
818930625: global: Timer #1 stopped at tick 818930625. Duration: 295625
820104000: system.acctest.convolution0_dma: SRC:0x0000000082039040, DST:0x0000000022030020, LEN:36
820257000: system.acctest.convolution0_dma: Transfer completed in 0.153 us
820341875: global: Timer #0 stopped at tick 820341875. Duration: 1755625
820356250: global: Number of accelerators running = 2
820463125: global: Timer #0 started at tick 820463125
821872500: global: Timer #0 stopped at tick 821872500. Duration: 1409375
821886875: global: Number of accelerators running = 2
824420875: system.acctest.elem_matrix0_dma: Transfer completed in 6.35 us
824506250: global: Timer #0 started at tick 824506250
824553750: global: Timer #1 started at tick 824553750
824853750: global: Timer #1 stopped at tick 824853750. Duration: 300000
825189375: global: DAG ID = 0
825203125: global: Node ID = 4
825222500: global: Node deadline difference = -13961
825235000: global: Predicted memory time / byte = 0.000183174 us/byte
825247500: global: Predicted memory time = 24.009 us
825260000: global: Predicted memory time / byte = 0.000183174 us/byte
825272500: global: Predicted memory time = 36.0135 us
825285000: global: Predicted memory time / byte = 0.00035434 us/byte
825297500: global: Predicted memory time = 23 us
825310000: global: Predicted memory time / byte = 9.67407e-05 us/byte
825322500: global: Predicted memory time = 6 us
825444375: global: Timer #0 stopped at tick 825444375. Duration: 938125
825458750: global: Number of accelerators running = 1
********************************************************************************
system.acctest.convolution0.compute
   ========= Performance Analysis =============
   Setup Time:                      0.443332seconds
   Simulation Time:                 81.911728seconds
   System Clock:                    1.000000GHz
   Transistor Latency:              1ns
   Runtime:                         637329 cycles
   Runtime:                         637.329000 us
   Stalls:                          7 cycles
   Executed Nodes:                  637321 cycles

********************************************************************************
   ========= Performance Analysis =================
   Setup Time:                      443332237.000000ns
   Simulation Time:                 81911727937.000000ns
   System Clock:                    1.000000GHz
   Transistor Latency:              0ns
   Runtime:                         637329 cycles
   Runtime:                         0.000064 seconds
   Stalls:                          7 cycles
       Load Only:                   0 cycles
       Store Only:                  1 cycles
       Compute Only:                6 cycles
       Compute & Store:             0 cycles
       Load & Store:                0 cycles
       Load & Compute:              0 cycles
       Load & Compute & Store:      0 cycles
   Executed Nodes:                  637321 cycles
       Load Only:                   0 cycles
       Store Only:                  1 cycles
       Compute Only:                475397 cycles
       Compute & Store:             15999 cycles
       Load & Store:                0 cycles
       Load & Compute:              145540 cycles
       Load & Compute & Store:      384 cycles

   ========= Runtime FU's ========= (Max | Avg) ===
   Counter FU's:                       3 | 0.119701
   Integer Add/Sub FU's:               4 | 0.197730
   Integer Mul/Div FU's:               1 | 0.076720
   Integer Shifter FU's:              10 | 0.007714
   Integer Bitwise FU's:               2 | 0.192204
   Floating Point Float Add/Sub:       4 | 0.202424
   Floating Point Double Add/Sub:      0 | 0.000000
   Floating Point Float Mul/Div:       2 | 0.114482
   Floating Point Double Mul/Div:      0 | 0.000000
   0 Cycle Compare FU's:              40 | 0.135811
   GEP Instruction FU's:               2 | 0.241815
   Type Conversion FU's:               9 | 0.181785

   ========= Static FU's ==========================
   Counter FU's:                    0
   Integer Add/Sub FU's:            0
   Integer Mul/Div FU's:            0
   Integer Shifter FU's:            0
   Integer Bitwise FU's:            0
   Floating Point Float Add/Sub:    0
   Floating Point Double Add/Sub:   0
   Floating Point Float Mul/Div:    0
   Floating Point Double Mul/Div:   0
   0 Cycle Compare FU's:            0
   GEP Instruction FU's:            0
   Type Conversion FU's:            0
   Other:                           0

   ========= Pipeline Register Usage =============
   Total Number of Registers:       1702
   Max Register Usage Per Cycle:    17
   Avg Register Usage Per Cycle:    6.079275
   Avg Register Size (Bytes):       5.490795

   ========= Memory Configuration =================
   Cache Bus Ports:                 0
   Shared Cache Size:               0kB
   Local Bus Ports:                 0
   Private SPM Size:                192kB
   Private Read Ports:              0
   Private Write Ports:             0
   Private Read Bus Width:          64
   Private Write Bus Width:         64
       Memory Reads:                0
       Memory Writes:               0
   ========= Power Analysis ======================
   FU Leakage Power:                0.181658 mW 
   FU Dynamic Power:                392.771942 mW 
   FU Total Power:                  392.953613 mW 

   Registers Leakage Power:          0.002424 mW 
   Registers Dynamic Power:          12.192513 mW 
       Register Reads (Bits):        3874498
       Register Writes (Bits):       4041055
   Registers Total Power:            12.194937 mW

   SPM Leakage Power:               0.078311 mW
   SPM Read Dynamic Power:          9.773991 mW
   SPM Write Dynamic Power:         2.044305 mW
   SPM Total Power:                 11.896606 mW

   Cache Leakage Power:             0.000000 mW
   Cache Read Dynamic Power:        0.000000 mW
   Cache Write Dynamic Power:       0.000000 mW
   Cache Total Power:               0.000000 mW

   Accelerator Power:               405.148560 mW
   Accelerator Power (SPM):         417.045166 mW
   Accelerator Power (Cache):       405.148560 mW

   ========= Area Analysis =======================
   FU Area:                         20868.273438 um^2 (0.020868 mm^2)
   Register Area:                   197.056931 um^2 (0.000197 mm^2)
   SPM Area:                        1748.188735 um^2 (0.001748 mm^2)
   Cache Area:                      0.000000 um^2 (0.000000 mm^2)

   Accelerator Area:                21065.330078 um^2 (0.021065 mm^2)
   Accelerator Area (SPM):          22813.518813 um^2 (0.022814 mm^2)
   Accelerator Area (Cache):        21065.330078 um^2 (0.021065 mm^2)

   ========= SPM Resizing  =======================
   SPM Optimized Leakage Power:     0.002053 mW
   SPM Opt Area:                    145.024971 um^2

1459061875: global: Timer #0 started at tick 1459061875
1459246250: global: Timer #2 started at tick 1459246250
1459444375: global: Timer #2 stopped at tick 1459444375. Duration: 198125
1459485625: global: Timer #2 started at tick 1459485625
1459738125: global: Timer #2 stopped at tick 1459738125. Duration: 252500
1472980875: system.acctest.convolution0_dma: SRC:0x0000000022010020, DST:0x0000000082049080, LEN:65536
1474279000: system.acctest.elem_matrix0_dma: SRC:0x0000000022010020, DST:0x0000000024000020, LEN:65536
1474505625: global: Timer #0 stopped at tick 1474505625. Duration: 15443750
1474520000: global: Number of accelerators running = 2
1484406875: system.acctest.convolution0_dma: Transfer completed in 11.426 us
1484498750: global: Timer #0 started at tick 1484498750
1484546250: global: Timer #1 started at tick 1484546250
1484825000: global: Timer #1 stopped at tick 1484825000. Duration: 278750
1485143750: global: DAG ID = 0
1485157500: global: Node ID = 3
1485176875: global: Node deadline difference = -13261
1485189375: global: Predicted memory time / byte = 0.000173121 us/byte
1485201875: global: Predicted memory time = 22.6976 us
1485214375: global: Predicted memory time / byte = 0.000177659 us/byte
1485226875: global: Predicted memory time = 23.2926 us
1485239375: global: Predicted memory time / byte = 0.000379639 us/byte
1485251875: global: Predicted memory time = 24 us
1485264375: global: Predicted memory time / byte = 0.000174377 us/byte
1485276875: global: Predicted memory time = 11 us
1488062000: system.acctest.elem_matrix0_dma: Transfer completed in 13.783 us
1498615875: system.acctest.convolution0_dma: SRC:0x0000000082059900, DST:0x0000000022000020, LEN:65536
1498888125: global: Timer #0 stopped at tick 1498888125. Duration: 14389375
1498902500: global: Number of accelerators running = 2
1499021875: global: Timer #0 started at tick 1499021875
1499064375: global: Timer #1 started at tick 1499064375
1499335625: global: Timer #1 stopped at tick 1499335625. Duration: 271250
1501075625: global: Timer #0 stopped at tick 1501075625. Duration: 2053750
1501090000: global: Number of accelerators running = 2
********************************************************************************
system.acctest.elem_matrix0.compute
   ========= Performance Analysis =============
   Setup Time:                      3.488131seconds
   Simulation Time:                 50.484513seconds
   System Clock:                    1.000000GHz
   Transistor Latency:              1ns
   Runtime:                         8199 cycles
   Runtime:                         8.199000 us
   Stalls:                          2729 cycles
   Executed Nodes:                  5469 cycles

********************************************************************************
   ========= Performance Analysis =================
   Setup Time:                      3488131202.000000ns
   Simulation Time:                 50484513473.000000ns
   System Clock:                    1.000000GHz
   Transistor Latency:              0ns
   Runtime:                         8199 cycles
   Runtime:                         0.000001 seconds
   Stalls:                          2729 cycles
       Load Only:                   0 cycles
       Store Only:                  2729 cycles
       Compute Only:                0 cycles
       Compute & Store:             0 cycles
       Load & Store:                0 cycles
       Load & Compute:              0 cycles
       Load & Compute & Store:      0 cycles
   Executed Nodes:                  5469 cycles
       Load Only:                   0 cycles
       Store Only:                  4 cycles
       Compute Only:                1 cycles
       Compute & Store:             11 cycles
       Load & Store:                0 cycles
       Load & Compute:              6 cycles
       Load & Compute & Store:      5447 cycles

   ========= Runtime FU's ========= (Max | Avg) ===
   Counter FU's:                      32 | 0.062450
   Integer Add/Sub FU's:               0 | 0.000000
   Integer Mul/Div FU's:               0 | 0.000000
   Integer Shifter FU's:               0 | 0.000000
   Integer Bitwise FU's:               1 | 0.000122
   Floating Point Float Add/Sub:       0 | 0.000000
   Floating Point Double Add/Sub:      0 | 0.000000
   Floating Point Float Mul/Div:      35 | 0.057652
   Floating Point Double Mul/Div:      0 | 0.000000
   0 Cycle Compare FU's:              15 | 0.025182
   GEP Instruction FU's:              64 | 0.062447
   Type Conversion FU's:               7 | 0.009043

   ========= Static FU's ==========================
   Counter FU's:                    0
   Integer Add/Sub FU's:            0
   Integer Mul/Div FU's:            0
   Integer Shifter FU's:            0
   Integer Bitwise FU's:            0
   Floating Point Float Add/Sub:    0
   Floating Point Double Add/Sub:   0
   Floating Point Float Mul/Div:    0
   Floating Point Double Mul/Div:   0
   0 Cycle Compare FU's:            0
   GEP Instruction FU's:            0
   Type Conversion FU's:            0
   Other:                           0

   ========= Pipeline Register Usage =============
   Total Number of Registers:       5641
   Max Register Usage Per Cycle:    104
   Avg Register Usage Per Cycle:    10.117331
   Avg Register Size (Bytes):       6.376398

   ========= Memory Configuration =================
   Cache Bus Ports:                 0
   Shared Cache Size:               0kB
   Local Bus Ports:                 0
   Private SPM Size:                256kB
   Private Read Ports:              0
   Private Write Ports:             0
   Private Read Bus Width:          64
   Private Write Bus Width:         64
       Memory Reads:                0
       Memory Writes:               0
   ========= Power Analysis ======================
   FU Leakage Power:                0.045377 mW 
   FU Dynamic Power:                0.051978 mW 
   FU Total Power:                  0.097355 mW 

   Registers Leakage Power:          0.004692 mW 
   Registers Dynamic Power:          0.006422 mW 
       Register Reads (Bits):        82952
       Register Writes (Bits):       84505
   Registers Total Power:            0.011115 mW

   SPM Leakage Power:               0.104100 mW
   SPM Read Dynamic Power:          1.997266 mW
   SPM Write Dynamic Power:         2.044305 mW
   SPM Total Power:                 4.145671 mW

   Cache Leakage Power:             0.000000 mW
   Cache Read Dynamic Power:        0.000000 mW
   Cache Write Dynamic Power:       0.000000 mW
   Cache Total Power:               0.000000 mW

   Accelerator Power:               0.108470 mW
   Accelerator Power (SPM):         4.254141 mW
   Accelerator Power (Cache):       0.108470 mW

   ========= Area Analysis =======================
   FU Area:                         5472.068359 um^2 (0.005472 mm^2)
   Register Area:                   381.399994 um^2 (0.000381 mm^2)
   SPM Area:                        2177.365505 um^2 (0.002177 mm^2)
   Cache Area:                      0.000000 um^2 (0.000000 mm^2)

   Accelerator Area:                5853.468262 um^2 (0.005853 mm^2)
   Accelerator Area (SPM):          8030.833767 um^2 (0.008031 mm^2)
   Accelerator Area (Cache):        5853.468262 um^2 (0.005853 mm^2)

   ========= SPM Resizing  =======================
   SPM Optimized Leakage Power:     0.003237 mW
   SPM Opt Area:                    162.973445 um^2

1509066875: global: Timer #0 started at tick 1509066875
1509256250: global: Timer #2 started at tick 1509256250
1509450000: global: Timer #2 stopped at tick 1509450000. Duration: 193750
1510653875: system.acctest.convolution0_dma: Transfer completed in 12.038 us
1522639500: system.acctest.elem_matrix0_dma: SRC:0x0000000024010020, DST:0x0000000082079900, LEN:65536
1523034375: global: Timer #0 stopped at tick 1523034375. Duration: 13967500
1523048750: global: Number of accelerators running = 2
1523166875: global: Timer #0 started at tick 1523166875
1523209375: global: Timer #1 started at tick 1523209375
1523483125: global: Timer #1 stopped at tick 1523483125. Duration: 273750
1524598750: system.acctest.convolution0_dma: SRC:0x00000000820b9900, DST:0x0000000022030020, LEN:100
1524765750: system.acctest.convolution0_dma: Transfer completed in 0.167 us
1524856250: global: Timer #0 stopped at tick 1524856250. Duration: 1689375
1524870625: global: Number of accelerators running = 2
1524978125: global: Timer #0 started at tick 1524978125
1526376250: global: Timer #0 stopped at tick 1526376250. Duration: 1398125
1526390625: global: Number of accelerators running = 2
1528945500: system.acctest.elem_matrix0_dma: Transfer completed in 6.306 us
1529019375: global: Timer #0 started at tick 1529019375
1529063750: global: Timer #1 started at tick 1529063750
1529337500: global: Timer #1 stopped at tick 1529337500. Duration: 273750
1529660625: global: DAG ID = 0
1529674375: global: Node ID = 6
1529693750: global: Node deadline difference = -13257
1529706250: global: Predicted memory time / byte = 0.000220146 us/byte
1529718750: global: Predicted memory time = 28.855 us
1529731250: global: Predicted memory time / byte = 0.000220146 us/byte
1529743750: global: Predicted memory time = 43.2825 us
1529756250: global: Predicted memory time / byte = 0.000376205 us/byte
1529768750: global: Predicted memory time = 24 us
1529781250: global: Predicted memory time / byte = 9.59167e-05 us/byte
1529793750: global: Predicted memory time = 6 us
1543369500: system.acctest.elem_matrix0_dma: SRC:0x0000000082039080, DST:0x0000000024000020, LEN:65536
1543578125: global: Timer #0 stopped at tick 1543578125. Duration: 14558750
1543592500: global: Number of accelerators running = 2
1555345500: system.acctest.elem_matrix0_dma: Transfer completed in 11.976 us
1555430000: global: Timer #0 started at tick 1555430000
1555472500: global: Timer #1 started at tick 1555472500
1555747500: global: Timer #1 stopped at tick 1555747500. Duration: 275000
1569371625: system.acctest.elem_matrix0_dma: SRC:0x0000000082049080, DST:0x0000000024010020, LEN:65536
1569623125: global: Timer #0 stopped at tick 1569623125. Duration: 14193125
1569637500: global: Number of accelerators running = 2
1581370625: system.acctest.elem_matrix0_dma: Transfer completed in 11.999 us
1581444375: global: Timer #0 started at tick 1581444375
1581492500: global: Timer #1 started at tick 1581492500
1581765000: global: Timer #1 stopped at tick 1581765000. Duration: 272500
1583445000: global: Timer #0 stopped at tick 1583445000. Duration: 2000625
1583459375: global: Number of accelerators running = 2
********************************************************************************
system.acctest.elem_matrix0.compute
   ========= Performance Analysis =============
   Setup Time:                      4.734701seconds
   Simulation Time:                 89.296980seconds
   System Clock:                    1.000000GHz
   Transistor Latency:              1ns
   Runtime:                         10932 cycles
   Runtime:                         10.932000 us
   Stalls:                          1 cycles
   Executed Nodes:                  10930 cycles

********************************************************************************
   ========= Performance Analysis =================
   Setup Time:                      4734700644.000000ns
   Simulation Time:                 89296980458.000000ns
   System Clock:                    1.000000GHz
   Transistor Latency:              0ns
   Runtime:                         10932 cycles
   Runtime:                         0.000001 seconds
   Stalls:                          1 cycles
       Load Only:                   0 cycles
       Store Only:                  1 cycles
       Compute Only:                0 cycles
       Compute & Store:             0 cycles
       Load & Store:                0 cycles
       Load & Compute:              0 cycles
       Load & Compute & Store:      0 cycles
   Executed Nodes:                  10930 cycles
       Load Only:                   0 cycles
       Store Only:                  4 cycles
       Compute Only:                1 cycles
       Compute & Store:             21 cycles
       Load & Store:                0 cycles
       Load & Compute:              6 cycles
       Load & Compute & Store:      10898 cycles

   ========= Runtime FU's ========= (Max | Avg) ===
   Counter FU's:                      32 | 0.046838
   Integer Add/Sub FU's:               0 | 0.000000
   Integer Mul/Div FU's:               0 | 0.000000
   Integer Shifter FU's:               0 | 0.000000
   Integer Bitwise FU's:               1 | 0.000091
   Floating Point Float Add/Sub:       0 | 0.000000
   Floating Point Double Add/Sub:      0 | 0.000000
   Floating Point Float Mul/Div:      34 | 0.044252
   Floating Point Double Mul/Div:      0 | 0.000000
   0 Cycle Compare FU's:             102 | 0.046945
   GEP Instruction FU's:              96 | 0.046835
   Type Conversion FU's:               7 | 0.006782

   ========= Static FU's ==========================
   Counter FU's:                    0
   Integer Add/Sub FU's:            0
   Integer Mul/Div FU's:            0
   Integer Shifter FU's:            0
   Integer Bitwise FU's:            0
   Floating Point Float Add/Sub:    0
   Floating Point Double Add/Sub:   0
   Floating Point Float Mul/Div:    0
   Floating Point Double Mul/Div:   0
   0 Cycle Compare FU's:            0
   GEP Instruction FU's:            0
   Type Conversion FU's:            0
   Other:                           0

   ========= Pipeline Register Usage =============
   Total Number of Registers:       5641
   Max Register Usage Per Cycle:    137
   Avg Register Usage Per Cycle:    12.130992
   Avg Register Size (Bytes):       5.980606

   ========= Memory Configuration =================
   Cache Bus Ports:                 0
   Shared Cache Size:               0kB
   Local Bus Ports:                 0
   Private SPM Size:                256kB
   Private Read Ports:              0
   Private Write Ports:             0
   Private Read Bus Width:          64
   Private Write Bus Width:         64
       Memory Reads:                0
       Memory Writes:               0
   ========= Power Analysis ======================
   FU Leakage Power:                0.045377 mW 
   FU Dynamic Power:                0.142576 mW 
   FU Total Power:                  0.187953 mW 

   Registers Leakage Power:          0.005281 mW 
   Registers Dynamic Power:          0.015326 mW 
       Register Reads (Bits):        132616
       Register Writes (Bits):       133658
   Registers Total Power:            0.020607 mW

   SPM Leakage Power:               0.104100 mW
   SPM Read Dynamic Power:          2.785289 mW
   SPM Write Dynamic Power:         2.457440 mW
   SPM Total Power:                 5.346829 mW

   Cache Leakage Power:             0.000000 mW
   Cache Read Dynamic Power:        0.000000 mW
   Cache Write Dynamic Power:       0.000000 mW
   Cache Total Power:               0.000000 mW

   Accelerator Power:               0.208559 mW
   Accelerator Power (SPM):         5.555389 mW
   Accelerator Power (Cache):       0.208559 mW

   ========= Area Analysis =======================
   FU Area:                         5472.068359 um^2 (0.005472 mm^2)
   Register Area:                   429.271088 um^2 (0.000429 mm^2)
   SPM Area:                        2177.365505 um^2 (0.002177 mm^2)
   Cache Area:                      0.000000 um^2 (0.000000 mm^2)

   Accelerator Area:                5901.339355 um^2 (0.005901 mm^2)
   Accelerator Area (SPM):          8078.704860 um^2 (0.008079 mm^2)
   Accelerator Area (Cache):        5901.339355 um^2 (0.005901 mm^2)

   ========= SPM Resizing  =======================
   SPM Optimized Leakage Power:     0.004248 mW
   SPM Opt Area:                    178.524902 um^2

1594225000: global: Timer #0 started at tick 1594225000
1594405000: global: Timer #2 started at tick 1594405000
1594626875: global: Timer #2 stopped at tick 1594626875. Duration: 221875
1607814500: system.acctest.elem_matrix0_dma: SRC:0x0000000024020020, DST:0x0000000082069900, LEN:65536
1608160625: global: Timer #0 stopped at tick 1608160625. Duration: 13935625
1608175000: global: Number of accelerators running = 2
1614098500: system.acctest.elem_matrix0_dma: Transfer completed in 6.284 us
1614179375: global: Timer #0 started at tick 1614179375
1614226875: global: Timer #1 started at tick 1614226875
1614506875: global: Timer #1 stopped at tick 1614506875. Duration: 280000
1614822500: global: DAG ID = 0
1614836250: global: Node ID = 5
1614855625: global: Node deadline difference = -13213
1614868125: global: Predicted memory time / byte = 0.000220146 us/byte
1614880625: global: Predicted memory time = 43.2825 us
1614893125: global: Predicted memory time / byte = 0.000232799 us/byte
1614905625: global: Predicted memory time = 45.7701 us
1614918125: global: Predicted memory time / byte = 0.000182785 us/byte
1614930625: global: Predicted memory time = 22 us
1614943125: global: Predicted memory time / byte = 9.57336e-05 us/byte
1614955625: global: Predicted memory time = 6 us
1615067500: global: Timer #0 stopped at tick 1615067500. Duration: 888125
1615081875: global: Number of accelerators running = 1
********************************************************************************
system.acctest.convolution0.compute
   ========= Performance Analysis =============
   Setup Time:                      0.422573seconds
   Simulation Time:                 301.838356seconds
   System Clock:                    1.000000GHz
   Transistor Latency:              1ns
   Runtime:                         1545612 cycles
   Runtime:                         1545.612000 us
   Stalls:                          3 cycles
   Executed Nodes:                  1545608 cycles

********************************************************************************
   ========= Performance Analysis =================
   Setup Time:                      422572685.000000ns
   Simulation Time:                 301838355781.000000ns
   System Clock:                    1.000000GHz
   Transistor Latency:              0ns
   Runtime:                         1545612 cycles
   Runtime:                         0.000155 seconds
   Stalls:                          3 cycles
       Load Only:                   0 cycles
       Store Only:                  1 cycles
       Compute Only:                2 cycles
       Compute & Store:             0 cycles
       Load & Store:                0 cycles
       Load & Compute:              0 cycles
       Load & Compute & Store:      0 cycles
   Executed Nodes:                  1545608 cycles
       Load Only:                   0 cycles
       Store Only:                  1 cycles
       Compute Only:                1142524 cycles
       Compute & Store:             1127 cycles
       Load & Store:                0 cycles
       Load & Compute:              386700 cycles
       Load & Compute & Store:      15256 cycles

   ========= Runtime FU's ========= (Max | Avg) ===
   Counter FU's:                       3 | 0.112298
   Integer Add/Sub FU's:               4 | 0.211563
   Integer Mul/Div FU's:               1 | 0.052505
   Integer Shifter FU's:              10 | 0.005268
   Integer Bitwise FU's:               2 | 0.184265
   Floating Point Float Add/Sub:       5 | 0.195738
   Floating Point Double Add/Sub:      0 | 0.000000
   Floating Point Float Mul/Div:       2 | 0.130033
   Floating Point Double Mul/Div:      0 | 0.000000
   0 Cycle Compare FU's:              40 | 0.144068
   GEP Instruction FU's:               2 | 0.265363
   Type Conversion FU's:              11 | 0.138856

   ========= Static FU's ==========================
   Counter FU's:                    0
   Integer Add/Sub FU's:            0
   Integer Mul/Div FU's:            0
   Integer Shifter FU's:            0
   Integer Bitwise FU's:            0
   Floating Point Float Add/Sub:    0
   Floating Point Double Add/Sub:   0
   Floating Point Float Mul/Div:    0
   Floating Point Double Mul/Div:   0
   0 Cycle Compare FU's:            0
   GEP Instruction FU's:            0
   Type Conversion FU's:            0
   Other:                           0

   ========= Pipeline Register Usage =============
   Total Number of Registers:       1702
   Max Register Usage Per Cycle:    20
   Avg Register Usage Per Cycle:    6.401172
   Avg Register Size (Bytes):       5.569403

   ========= Memory Configuration =================
   Cache Bus Ports:                 0
   Shared Cache Size:               0kB
   Local Bus Ports:                 0
   Private SPM Size:                192kB
   Private Read Ports:              0
   Private Write Ports:             0
   Private Read Bus Width:          64
   Private Write Bus Width:         64
       Memory Reads:                0
       Memory Writes:               0
   ========= Power Analysis ======================
   FU Leakage Power:                0.196912 mW 
   FU Dynamic Power:                2658.054443 mW 
   FU Total Power:                  2658.251465 mW 

   Registers Leakage Power:          0.002459 mW 
   Registers Dynamic Power:          75.875725 mW 
       Register Reads (Bits):        9893728
       Register Writes (Bits):       10131647
   Registers Total Power:            75.878181 mW

   SPM Leakage Power:               0.078311 mW
   SPM Read Dynamic Power:          14.889326 mW
   SPM Write Dynamic Power:         2.457440 mW
   SPM Total Power:                 17.425076 mW

   Cache Leakage Power:             0.000000 mW
   Cache Read Dynamic Power:        0.000000 mW
   Cache Write Dynamic Power:       0.000000 mW
   Cache Total Power:               0.000000 mW

   Accelerator Power:               2734.129639 mW
   Accelerator Power (SPM):         2751.554715 mW
   Accelerator Power (Cache):       2734.129639 mW

   ========= Area Analysis =======================
   FU Area:                         22931.867188 um^2 (0.022932 mm^2)
   Register Area:                   199.878082 um^2 (0.000200 mm^2)
   SPM Area:                        1748.188735 um^2 (0.001748 mm^2)
   Cache Area:                      0.000000 um^2 (0.000000 mm^2)

   Accelerator Area:                23131.746094 um^2 (0.023132 mm^2)
   Accelerator Area (SPM):          24879.934829 um^2 (0.024880 mm^2)
   Accelerator Area (Cache):        23131.746094 um^2 (0.023132 mm^2)

   ========= SPM Resizing  =======================
   SPM Optimized Leakage Power:     0.002053 mW
   SPM Opt Area:                    145.024971 um^2

3071843750: global: Timer #0 started at tick 3071843750
3085225875: system.acctest.convolution0_dma: SRC:0x0000000022010020, DST:0x0000000082089900, LEN:65536
3085571875: global: Timer #0 stopped at tick 3085571875. Duration: 13728125
3085586250: global: Number of accelerators running = 1
3091569875: system.acctest.convolution0_dma: Transfer completed in 6.344 us
3091643125: global: Timer #0 started at tick 3091643125
3091687500: global: Timer #1 started at tick 3091687500
3092044375: global: Timer #1 stopped at tick 3092044375. Duration: 356875
3092361250: global: DAG ID = 0
3092375000: global: Node ID = 7
3092394375: global: Node deadline difference = -13270
3092406875: global: Predicted memory time / byte = 0.00021294 us/byte
3092419375: global: Predicted memory time = 27.9317 us
3092431875: global: Predicted memory time / byte = 0.000214431 us/byte
3092444375: global: Predicted memory time = 28.1273 us
3092456875: global: Predicted memory time / byte = 0.000373367 us/byte
3092469375: global: Predicted memory time = 24 us
3092481875: global: Predicted memory time / byte = 9.65118e-05 us/byte
3092494375: global: Predicted memory time = 6 us
3105825875: system.acctest.convolution0_dma: SRC:0x0000000082079900, DST:0x0000000022000020, LEN:65536
3106065625: global: Timer #0 stopped at tick 3106065625. Duration: 14422500
3106080000: global: Number of accelerators running = 1
3117809875: system.acctest.convolution0_dma: Transfer completed in 11.984 us
3117883125: global: Timer #0 started at tick 3117883125
3117922500: global: Timer #1 started at tick 3117922500
3118341875: global: Timer #1 stopped at tick 3118341875. Duration: 419375
3119405875: system.acctest.convolution0_dma: SRC:0x00000000820b9900, DST:0x0000000022030020, LEN:100
3119520875: system.acctest.convolution0_dma: Transfer completed in 0.115 us
3119636250: global: Timer #0 stopped at tick 3119636250. Duration: 1753125
3119650625: global: Number of accelerators running = 1
3119758125: global: Timer #0 started at tick 3119758125
3121076875: global: Timer #0 stopped at tick 3121076875. Duration: 1318750
3121091250: global: Number of accelerators running = 1
********************************************************************************
system.acctest.convolution0.compute
   ========= Performance Analysis =============
   Setup Time:                      0.269458seconds
   Simulation Time:                 146.225187seconds
   System Clock:                    1.000000GHz
   Transistor Latency:              1ns
   Runtime:                         1545612 cycles
   Runtime:                         1545.612000 us
   Stalls:                          3 cycles
   Executed Nodes:                  1545608 cycles

********************************************************************************
   ========= Performance Analysis =================
   Setup Time:                      269457972.000000ns
   Simulation Time:                 146225186826.000000ns
   System Clock:                    1.000000GHz
   Transistor Latency:              0ns
   Runtime:                         1545612 cycles
   Runtime:                         0.000155 seconds
   Stalls:                          3 cycles
       Load Only:                   0 cycles
       Store Only:                  1 cycles
       Compute Only:                2 cycles
       Compute & Store:             0 cycles
       Load & Store:                0 cycles
       Load & Compute:              0 cycles
       Load & Compute & Store:      0 cycles
   Executed Nodes:                  1545608 cycles
       Load Only:                   0 cycles
       Store Only:                  1 cycles
       Compute Only:                1142524 cycles
       Compute & Store:             1127 cycles
       Load & Store:                0 cycles
       Load & Compute:              386700 cycles
       Load & Compute & Store:      15256 cycles

   ========= Runtime FU's ========= (Max | Avg) ===
   Counter FU's:                       3 | 0.112298
   Integer Add/Sub FU's:               4 | 0.211563
   Integer Mul/Div FU's:               1 | 0.052505
   Integer Shifter FU's:              10 | 0.005268
   Integer Bitwise FU's:               2 | 0.184265
   Floating Point Float Add/Sub:       5 | 0.195738
   Floating Point Double Add/Sub:      0 | 0.000000
   Floating Point Float Mul/Div:       2 | 0.130033
   Floating Point Double Mul/Div:      0 | 0.000000
   0 Cycle Compare FU's:              40 | 0.144068
   GEP Instruction FU's:               2 | 0.265363
   Type Conversion FU's:              11 | 0.138856

   ========= Static FU's ==========================
   Counter FU's:                    0
   Integer Add/Sub FU's:            0
   Integer Mul/Div FU's:            0
   Integer Shifter FU's:            0
   Integer Bitwise FU's:            0
   Floating Point Float Add/Sub:    0
   Floating Point Double Add/Sub:   0
   Floating Point Float Mul/Div:    0
   Floating Point Double Mul/Div:   0
   0 Cycle Compare FU's:            0
   GEP Instruction FU's:            0
   Type Conversion FU's:            0
   Other:                           0

   ========= Pipeline Register Usage =============
   Total Number of Registers:       1702
   Max Register Usage Per Cycle:    20
   Avg Register Usage Per Cycle:    6.401172
   Avg Register Size (Bytes):       5.569403

   ========= Memory Configuration =================
   Cache Bus Ports:                 0
   Shared Cache Size:               0kB
   Local Bus Ports:                 0
   Private SPM Size:                192kB
   Private Read Ports:              0
   Private Write Ports:             0
   Private Read Bus Width:          64
   Private Write Bus Width:         64
       Memory Reads:                0
       Memory Writes:               0
   ========= Power Analysis ======================
   FU Leakage Power:                0.196912 mW 
   FU Dynamic Power:                2658.054443 mW 
   FU Total Power:                  2658.251465 mW 

   Registers Leakage Power:          0.002459 mW 
   Registers Dynamic Power:          75.875725 mW 
       Register Reads (Bits):        9893728
       Register Writes (Bits):       10131647
   Registers Total Power:            75.878181 mW

   SPM Leakage Power:               0.078311 mW
   SPM Read Dynamic Power:          18.794546 mW
   SPM Write Dynamic Power:         2.880682 mW
   SPM Total Power:                 21.753539 mW

   Cache Leakage Power:             0.000000 mW
   Cache Read Dynamic Power:        0.000000 mW
   Cache Write Dynamic Power:       0.000000 mW
   Cache Total Power:               0.000000 mW

   Accelerator Power:               2734.129639 mW
   Accelerator Power (SPM):         2755.883177 mW
   Accelerator Power (Cache):       2734.129639 mW

   ========= Area Analysis =======================
   FU Area:                         22931.867188 um^2 (0.022932 mm^2)
   Register Area:                   199.878082 um^2 (0.000200 mm^2)
   SPM Area:                        1748.188735 um^2 (0.001748 mm^2)
   Cache Area:                      0.000000 um^2 (0.000000 mm^2)

   Accelerator Area:                23131.746094 um^2 (0.023132 mm^2)
   Accelerator Area (SPM):          24879.934829 um^2 (0.024880 mm^2)
   Accelerator Area (Cache):        23131.746094 um^2 (0.023132 mm^2)

   ========= SPM Resizing  =======================
   SPM Optimized Leakage Power:     0.002053 mW
   SPM Opt Area:                    145.024971 um^2

4666565625: global: Timer #0 started at tick 4666565625
4666743125: global: Timer #2 started at tick 4666743125
4666935625: global: Timer #2 stopped at tick 4666935625. Duration: 192500
4666965000: global: Timer #2 started at tick 4666965000
4667182500: global: Timer #2 stopped at tick 4667182500. Duration: 217500
4680428750: system.acctest.convolution0_dma: SRC:0x0000000022010020, DST:0x00000000820a9900, LEN:65536
4687215750: system.acctest.convolution0_dma: Transfer completed in 6.787 us
4694633750: system.acctest.elem_matrix0_dma: SRC:0x0000000082089900, DST:0x0000000024000020, LEN:65536
4694866250: global: Timer #0 stopped at tick 4694866250. Duration: 28300625
4694880625: global: Number of accelerators running = 2
4694987500: global: Timer #0 started at tick 4694987500
4695027500: global: Timer #1 started at tick 4695027500
4695383125: global: Timer #1 stopped at tick 4695383125. Duration: 355625
4695722500: global: DAG ID = 0
4695736250: global: Node ID = 9
4695755625: global: Node deadline difference = -11667
4695768125: global: Predicted memory time / byte = 0.00023239 us/byte
4695780625: global: Predicted memory time = 30.483 us
4695793125: global: Predicted memory time / byte = 0.000207653 us/byte
4695805625: global: Predicted memory time = 27.2383 us
4695818125: global: Predicted memory time / byte = 0.000182678 us/byte
4695830625: global: Predicted memory time = 11 us
4695843125: global: Predicted memory time / byte = 0.000220734 us/byte
4695855625: global: Predicted memory time = 14 us
4706634750: system.acctest.elem_matrix0_dma: Transfer completed in 12.001 us
4709303750: system.acctest.convolution0_dma: SRC:0x0000000082069900, DST:0x0000000022000020, LEN:65536
4709551875: global: Timer #0 stopped at tick 4709551875. Duration: 14564375
4709566250: global: Number of accelerators running = 2
4709673125: global: Timer #0 started at tick 4709673125
4709712500: global: Timer #1 started at tick 4709712500
4710084375: global: Timer #1 stopped at tick 4710084375. Duration: 371875
4711190000: system.acctest.elem_matrix0_dma: SRC:0x0000000022010020, DST:0x0000000024010020, LEN:65536
4711437500: global: Timer #0 stopped at tick 4711437500. Duration: 1764375
4711451875: global: Number of accelerators running = 2
4721654750: system.acctest.convolution0_dma: Transfer completed in 12.351 us
4721738750: global: Timer #0 started at tick 4721738750
4721781250: global: Timer #1 started at tick 4721781250
4722118125: global: Timer #1 stopped at tick 4722118125. Duration: 336875
4723225000: system.acctest.convolution0_dma: SRC:0x00000000820b9900, DST:0x0000000022030020, LEN:100
4723350000: system.acctest.convolution0_dma: Transfer completed in 0.125 us
4723458750: global: Timer #0 stopped at tick 4723458750. Duration: 1720000
4723473125: global: Number of accelerators running = 2
4723580625: global: Timer #0 started at tick 4723580625
4724946875: global: Timer #0 stopped at tick 4724946875. Duration: 1366250
4724961250: global: Number of accelerators running = 2
4727481000: system.acctest.elem_matrix0_dma: Transfer completed in 16.291 us
4727566250: global: Timer #0 started at tick 4727566250
4727622500: global: Timer #1 started at tick 4727622500
4727958750: global: Timer #1 stopped at tick 4727958750. Duration: 336250
4729635000: global: Timer #0 stopped at tick 4729635000. Duration: 2068750
4729649375: global: Number of accelerators running = 2
********************************************************************************
system.acctest.elem_matrix0.compute
   ========= Performance Analysis =============
   Setup Time:                      3.141522seconds
   Simulation Time:                 75.014278seconds
   System Clock:                    1.000000GHz
   Transistor Latency:              1ns
   Runtime:                         10932 cycles
   Runtime:                         10.932000 us
   Stalls:                          0 cycles
   Executed Nodes:                  10931 cycles

********************************************************************************
   ========= Performance Analysis =================
   Setup Time:                      3141522347.000000ns
   Simulation Time:                 75014277999.000000ns
   System Clock:                    1.000000GHz
   Transistor Latency:              0ns
   Runtime:                         10932 cycles
   Runtime:                         0.000001 seconds
   Stalls:                          0 cycles
       Load Only:                   0 cycles
       Store Only:                  0 cycles
       Compute Only:                0 cycles
       Compute & Store:             0 cycles
       Load & Store:                0 cycles
       Load & Compute:              0 cycles
       Load & Compute & Store:      0 cycles
   Executed Nodes:                  10931 cycles
       Load Only:                   0 cycles
       Store Only:                  5 cycles
       Compute Only:                1 cycles
       Compute & Store:             21 cycles
       Load & Store:                0 cycles
       Load & Compute:              7 cycles
       Load & Compute & Store:      10897 cycles

   ========= Runtime FU's ========= (Max | Avg) ===
   Counter FU's:                      32 | 0.046838
   Integer Add/Sub FU's:               0 | 0.000000
   Integer Mul/Div FU's:               0 | 0.000000
   Integer Shifter FU's:               0 | 0.000000
   Integer Bitwise FU's:               1 | 0.000091
   Floating Point Float Add/Sub:      34 | 0.044252
   Floating Point Double Add/Sub:      0 | 0.000000
   Floating Point Float Mul/Div:       0 | 0.000000
   Floating Point Double Mul/Div:      0 | 0.000000
   0 Cycle Compare FU's:             102 | 0.046974
   GEP Instruction FU's:              96 | 0.046835
   Type Conversion FU's:               7 | 0.006782

   ========= Static FU's ==========================
   Counter FU's:                    0
   Integer Add/Sub FU's:            0
   Integer Mul/Div FU's:            0
   Integer Shifter FU's:            0
   Integer Bitwise FU's:            0
   Floating Point Float Add/Sub:    0
   Floating Point Double Add/Sub:   0
   Floating Point Float Mul/Div:    0
   Floating Point Double Mul/Div:   0
   0 Cycle Compare FU's:            0
   GEP Instruction FU's:            0
   Type Conversion FU's:            0
   Other:                           0

   ========= Pipeline Register Usage =============
   Total Number of Registers:       5641
   Max Register Usage Per Cycle:    138
   Avg Register Usage Per Cycle:    12.130992
   Avg Register Size (Bytes):       5.980606

   ========= Memory Configuration =================
   Cache Bus Ports:                 0
   Shared Cache Size:               0kB
   Local Bus Ports:                 0
   Private SPM Size:                256kB
   Private Read Ports:              0
   Private Write Ports:             0
   Private Read Bus Width:          64
   Private Write Bus Width:         64
       Memory Reads:                0
       Memory Writes:               0
   ========= Power Analysis ======================
   FU Leakage Power:                0.519269 mW 
   FU Dynamic Power:                0.154621 mW 
   FU Total Power:                  0.673890 mW 

   Registers Leakage Power:          0.005281 mW 
   Registers Dynamic Power:          0.015326 mW 
       Register Reads (Bits):        132616
       Register Writes (Bits):       133658
   Registers Total Power:            0.020607 mW

   SPM Leakage Power:               0.104100 mW
   SPM Read Dynamic Power:          3.776796 mW
   SPM Write Dynamic Power:         2.880682 mW
   SPM Total Power:                 6.761578 mW

   Cache Leakage Power:             0.000000 mW
   Cache Read Dynamic Power:        0.000000 mW
   Cache Write Dynamic Power:       0.000000 mW
   Cache Total Power:               0.000000 mW

   Accelerator Power:               0.694497 mW
   Accelerator Power (SPM):         7.456075 mW
   Accelerator Power (Cache):       0.694497 mW

   ========= Area Analysis =======================
   FU Area:                         70212.562500 um^2 (0.070213 mm^2)
   Register Area:                   429.271088 um^2 (0.000429 mm^2)
   SPM Area:                        2177.365505 um^2 (0.002177 mm^2)
   Cache Area:                      0.000000 um^2 (0.000000 mm^2)

   Accelerator Area:                70641.835938 um^2 (0.070642 mm^2)
   Accelerator Area (SPM):          72819.201442 um^2 (0.072819 mm^2)
   Accelerator Area (Cache):        70641.835938 um^2 (0.070642 mm^2)

   ========= SPM Resizing  =======================
   SPM Optimized Leakage Power:     0.004248 mW
   SPM Opt Area:                    178.524902 um^2

4740396250: global: Timer #0 started at tick 4740396250
4740640000: global: Timer #2 started at tick 4740640000
4740859375: global: Timer #2 stopped at tick 4740859375. Duration: 219375
4754047375: system.acctest.elem_matrix0_dma: SRC:0x0000000024020020, DST:0x00000000820ea340, LEN:65536
4754403125: global: Timer #0 stopped at tick 4754403125. Duration: 14006875
4754417500: global: Number of accelerators running = 2
4760392375: system.acctest.elem_matrix0_dma: Transfer completed in 6.345 us
4760466250: global: Timer #0 started at tick 4760466250
4760506250: global: Timer #1 started at tick 4760506250
4760833750: global: Timer #1 stopped at tick 4760833750. Duration: 327500
4761150625: global: DAG ID = 0
4761164375: global: Node ID = 12
4761183750: global: Node deadline difference = -11658
4761196250: global: Predicted memory time / byte = 0.000208575 us/byte
4761208750: global: Predicted memory time = 41.0076 us
4761221250: global: Predicted memory time / byte = 0.000208575 us/byte
4761233750: global: Predicted memory time = 41.0076 us
4761246250: global: Predicted memory time / byte = 0.00023838 us/byte
4761258750: global: Predicted memory time = 30 us
4761271250: global: Predicted memory time / byte = 9.65118e-05 us/byte
4761283750: global: Predicted memory time = 6 us
4774717375: system.acctest.elem_matrix0_dma: SRC:0x0000000082089900, DST:0x0000000024000020, LEN:65536
4774935000: global: Timer #0 stopped at tick 4774935000. Duration: 14468750
4774949375: global: Number of accelerators running = 2
4786933375: system.acctest.elem_matrix0_dma: Transfer completed in 12.216 us
4787007500: global: Timer #0 started at tick 4787007500
4787046875: global: Timer #1 started at tick 4787046875
4787363750: global: Timer #1 stopped at tick 4787363750. Duration: 316875
4800900875: system.acctest.elem_matrix0_dma: SRC:0x00000000820a9900, DST:0x0000000024010020, LEN:65536
4801120625: global: Timer #0 stopped at tick 4801120625. Duration: 14113125
4801135000: global: Number of accelerators running = 2
4812845875: system.acctest.elem_matrix0_dma: Transfer completed in 11.945 us
4812920625: global: Timer #0 started at tick 4812920625
4812962500: global: Timer #1 started at tick 4812962500
4813276875: global: Timer #1 stopped at tick 4813276875. Duration: 314375
4814913750: global: Timer #0 stopped at tick 4814913750. Duration: 1993125
4814928125: global: Number of accelerators running = 2
********************************************************************************
system.acctest.elem_matrix0.compute
   ========= Performance Analysis =============
   Setup Time:                      5.240902seconds
   Simulation Time:                 78.419734seconds
   System Clock:                    1.000000GHz
   Transistor Latency:              1ns
   Runtime:                         10932 cycles
   Runtime:                         10.932000 us
   Stalls:                          1 cycles
   Executed Nodes:                  10930 cycles

********************************************************************************
   ========= Performance Analysis =================
   Setup Time:                      5240902180.000000ns
   Simulation Time:                 78419734275.000000ns
   System Clock:                    1.000000GHz
   Transistor Latency:              0ns
   Runtime:                         10932 cycles
   Runtime:                         0.000001 seconds
   Stalls:                          1 cycles
       Load Only:                   0 cycles
       Store Only:                  1 cycles
       Compute Only:                0 cycles
       Compute & Store:             0 cycles
       Load & Store:                0 cycles
       Load & Compute:              0 cycles
       Load & Compute & Store:      0 cycles
   Executed Nodes:                  10930 cycles
       Load Only:                   0 cycles
       Store Only:                  4 cycles
       Compute Only:                1 cycles
       Compute & Store:             21 cycles
       Load & Store:                0 cycles
       Load & Compute:              6 cycles
       Load & Compute & Store:      10898 cycles

   ========= Runtime FU's ========= (Max | Avg) ===
   Counter FU's:                      32 | 0.046838
   Integer Add/Sub FU's:               0 | 0.000000
   Integer Mul/Div FU's:               0 | 0.000000
   Integer Shifter FU's:               0 | 0.000000
   Integer Bitwise FU's:               1 | 0.000091
   Floating Point Float Add/Sub:       0 | 0.000000
   Floating Point Double Add/Sub:      0 | 0.000000
   Floating Point Float Mul/Div:      34 | 0.044252
   Floating Point Double Mul/Div:      0 | 0.000000
   0 Cycle Compare FU's:             102 | 0.046945
   GEP Instruction FU's:              96 | 0.046835
   Type Conversion FU's:               7 | 0.006782

   ========= Static FU's ==========================
   Counter FU's:                    0
   Integer Add/Sub FU's:            0
   Integer Mul/Div FU's:            0
   Integer Shifter FU's:            0
   Integer Bitwise FU's:            0
   Floating Point Float Add/Sub:    0
   Floating Point Double Add/Sub:   0
   Floating Point Float Mul/Div:    0
   Floating Point Double Mul/Div:   0
[...]
   Runtime:                         10932 cycles
   Runtime:                         10.932000 us
   Stalls:                          0 cycles
   Executed Nodes:                  10931 cycles

********************************************************************************
   ========= Performance Analysis =================
   Setup Time:                      5852116052.000000ns
   Simulation Time:                 96275638838.000000ns
   System Clock:                    1.000000GHz
   Transistor Latency:              0ns
   Runtime:                         10932 cycles
   Runtime:                         0.000001 seconds
   Stalls:                          0 cycles
       Load Only:                   0 cycles
       Store Only:                  0 cycles
       Compute Only:                0 cycles
       Compute & Store:             0 cycles
       Load & Store:                0 cycles
       Load & Compute:              0 cycles
       Load & Compute & Store:      0 cycles
   Executed Nodes:                  10931 cycles
       Load Only:                   0 cycles
       Store Only:                  5 cycles
       Compute Only:                1 cycles
       Compute & Store:             21 cycles
       Load & Store:                0 cycles
       Load & Compute:              7 cycles
       Load & Compute & Store:      10897 cycles

   ========= Runtime FU's ========= (Max | Avg) ===
   Counter FU's:                      32 | 0.046838
   Integer Add/Sub FU's:               0 | 0.000000
   Integer Mul/Div FU's:               0 | 0.000000
   Integer Shifter FU's:               0 | 0.000000
   Integer Bitwise FU's:               1 | 0.000091
   Floating Point Float Add/Sub:      34 | 0.044252
   Floating Point Double Add/Sub:      0 | 0.000000
   Floating Point Float Mul/Div:       0 | 0.000000
   Floating Point Double Mul/Div:      0 | 0.000000
   0 Cycle Compare FU's:             102 | 0.046974
   GEP Instruction FU's:              96 | 0.046835
   Type Conversion FU's:               7 | 0.006782

   ========= Static FU's ==========================
   Counter FU's:                    0
   Integer Add/Sub FU's:            0
   Integer Mul/Div FU's:            0
   Integer Shifter FU's:            0
   Integer Bitwise FU's:            0
   Floating Point Float Add/Sub:    0
   Floating Point Double Add/Sub:   0
   Floating Point Float Mul/Div:    0
   Floating Point Double Mul/Div:   0
   0 Cycle Compare FU's:            0
   GEP Instruction FU's:            0
   Type Conversion FU's:            0
   Other:                           0

   ========= Pipeline Register Usage =============
   Total Number of Registers:       5641
   Max Register Usage Per Cycle:    138
   Avg Register Usage Per Cycle:    12.130992
   Avg Register Size (Bytes):       5.980606

   ========= Memory Configuration =================
   Cache Bus Ports:                 0
   Shared Cache Size:               0kB
   Local Bus Ports:                 0
   Private SPM Size:                256kB
   Private Read Ports:              0
   Private Write Ports:             0
   Private Read Bus Width:          64
   Private Write Bus Width:         64
       Memory Reads:                0
       Memory Writes:               0
   ========= Power Analysis ======================
   FU Leakage Power:                0.519269 mW 
   FU Dynamic Power:                0.154621 mW 
   FU Total Power:                  0.673890 mW 

   Registers Leakage Power:          0.005281 mW 
   Registers Dynamic Power:          0.015326 mW 
       Register Reads (Bits):        132616
       Register Writes (Bits):       133658
   Registers Total Power:            0.020607 mW

   SPM Leakage Power:               0.104100 mW
   SPM Read Dynamic Power:          5.606090 mW
   SPM Write Dynamic Power:         4.890273 mW
   SPM Total Power:                 10.600463 mW

   Cache Leakage Power:             0.000000 mW
   Cache Read Dynamic Power:        0.000000 mW
   Cache Write Dynamic Power:       0.000000 mW
   Cache Total Power:               0.000000 mW

   Accelerator Power:               0.694497 mW
   Accelerator Power (SPM):         11.294960 mW
   Accelerator Power (Cache):       0.694497 mW

   ========= Area Analysis =======================
   FU Area:                         70212.562500 um^2 (0.070213 mm^2)
   Register Area:                   429.271088 um^2 (0.000429 mm^2)
   SPM Area:                        2177.365505 um^2 (0.002177 mm^2)
   Cache Area:                      0.000000 um^2 (0.000000 mm^2)

   Accelerator Area:                70641.835938 um^2 (0.070642 mm^2)
   Accelerator Area (SPM):          72819.201442 um^2 (0.072819 mm^2)
   Accelerator Area (Cache):        70641.835938 um^2 (0.070642 mm^2)

   ========= SPM Resizing  =======================
   SPM Optimized Leakage Power:     0.004248 mW
   SPM Opt Area:                    178.524902 um^2

6331536250: global: Timer #0 started at tick 6331536250
6331701875: global: Timer #2 started at tick 6331701875
6331891875: global: Timer #2 stopped at tick 6331891875. Duration: 190000
6332146250: global: DAG ID = 0
6332160000: global: Node ID = 13
6332173125: global: Node deadline difference = -10168
6332185625: global: Predicted memory time / byte = 0.000162629 us/byte
6332198125: global: Predicted memory time = 31.9742 us
6332210625: global: Predicted memory time / byte = 0.000162629 us/byte
6332223125: global: Predicted memory time = 21.3161 us
6332235625: global: Predicted memory time / byte = 0.000182312 us/byte
6332248125: global: Predicted memory time = 11 us
6332260625: global: Predicted memory time / byte = 0 us/byte
6332273125: global: Predicted memory time = 0 us
6345720875: system.acctest.elem_matrix0_dma: SRC:0x000000008210a380, DST:0x0000000024000020, LEN:65536
6345933750: global: Timer #0 stopped at tick 6345933750. Duration: 14397500
6345948125: global: Number of accelerators running = 1
6357629875: system.acctest.elem_matrix0_dma: Transfer completed in 11.909 us
6357703125: global: Timer #0 started at tick 6357703125
6357745000: global: Timer #1 started at tick 6357745000
6358075625: global: Timer #1 stopped at tick 6358075625. Duration: 330625
6359667500: global: Timer #0 stopped at tick 6359667500. Duration: 1964375
6359681875: global: Number of accelerators running = 1
********************************************************************************
system.acctest.elem_matrix0.compute
   ========= Performance Analysis =============
   Setup Time:                      6.017042seconds
   Simulation Time:                 83.948583seconds
   System Clock:                    1.000000GHz
   Transistor Latency:              1ns
   Runtime:                         10932 cycles
   Runtime:                         10.932000 us
   Stalls:                          0 cycles
   Executed Nodes:                  10931 cycles

********************************************************************************
   ========= Performance Analysis =================
   Setup Time:                      6017042461.000000ns
   Simulation Time:                 83948583092.000000ns
   System Clock:                    1.000000GHz
   Transistor Latency:              0ns
   Runtime:                         10932 cycles
   Runtime:                         0.000001 seconds
   Stalls:                          0 cycles
       Load Only:                   0 cycles
       Store Only:                  0 cycles
       Compute Only:                0 cycles
       Compute & Store:             0 cycles
       Load & Store:                0 cycles
       Load & Compute:              0 cycles
       Load & Compute & Store:      0 cycles
   Executed Nodes:                  10931 cycles
       Load Only:                   0 cycles
       Store Only:                  5 cycles
       Compute Only:                1 cycles
       Compute & Store:             21 cycles
       Load & Store:                0 cycles
       Load & Compute:              7 cycles
       Load & Compute & Store:      10897 cycles

   ========= Runtime FU's ========= (Max | Avg) ===
   Counter FU's:                      32 | 0.046838
   Integer Add/Sub FU's:               0 | 0.000000
   Integer Mul/Div FU's:               0 | 0.000000
   Integer Shifter FU's:               0 | 0.000000
   Integer Bitwise FU's:               1 | 0.000091
   Floating Point Float Add/Sub:      34 | 0.044252
   Floating Point Double Add/Sub:      0 | 0.000000
   Floating Point Float Mul/Div:       0 | 0.000000
   Floating Point Double Mul/Div:      0 | 0.000000
   0 Cycle Compare FU's:             102 | 0.046974
   GEP Instruction FU's:              96 | 0.046835
   Type Conversion FU's:               7 | 0.006782

   ========= Static FU's ==========================
   Counter FU's:                    0
   Integer Add/Sub FU's:            0
   Integer Mul/Div FU's:            0
   Integer Shifter FU's:            0
   Integer Bitwise FU's:            0
   Floating Point Float Add/Sub:    0
   Floating Point Double Add/Sub:   0
   Floating Point Float Mul/Div:    0
   Floating Point Double Mul/Div:   0
   0 Cycle Compare FU's:            0
   GEP Instruction FU's:            0
   Type Conversion FU's:            0
   Other:                           0

   ========= Pipeline Register Usage =============
   Total Number of Registers:       5641
   Max Register Usage Per Cycle:    138
   Avg Register Usage Per Cycle:    12.130992
   Avg Register Size (Bytes):       5.980606

   ========= Memory Configuration =================
   Cache Bus Ports:                 0
   Shared Cache Size:               0kB
   Local Bus Ports:                 0
   Private SPM Size:                256kB
   Private Read Ports:              0
   Private Write Ports:             0
   Private Read Bus Width:          64
   Private Write Bus Width:         64
       Memory Reads:                0
       Memory Writes:               0
   ========= Power Analysis ======================
   FU Leakage Power:                0.519269 mW 
   FU Dynamic Power:                0.154621 mW 
   FU Total Power:                  0.673890 mW 

   Registers Leakage Power:          0.005281 mW 
   Registers Dynamic Power:          0.015326 mW 
       Register Reads (Bits):        132616
       Register Writes (Bits):       133658
   Registers Total Power:            0.020607 mW

   SPM Leakage Power:               0.104100 mW
   SPM Read Dynamic Power:          6.015807 mW
   SPM Write Dynamic Power:         5.103456 mW
   SPM Total Power:                 11.223364 mW

   Cache Leakage Power:             0.000000 mW
   Cache Read Dynamic Power:        0.000000 mW
   Cache Write Dynamic Power:       0.000000 mW
   Cache Total Power:               0.000000 mW

   Accelerator Power:               0.694497 mW
   Accelerator Power (SPM):         11.917861 mW
   Accelerator Power (Cache):       0.694497 mW

   ========= Area Analysis =======================
   FU Area:                         70212.562500 um^2 (0.070213 mm^2)
   Register Area:                   429.271088 um^2 (0.000429 mm^2)
   SPM Area:                        2177.365505 um^2 (0.002177 mm^2)
   Cache Area:                      0.000000 um^2 (0.000000 mm^2)

   Accelerator Area:                70641.835938 um^2 (0.070642 mm^2)
   Accelerator Area (SPM):          72819.201442 um^2 (0.072819 mm^2)
   Accelerator Area (Cache):        70641.835938 um^2 (0.070642 mm^2)

   ========= SPM Resizing  =======================
   SPM Optimized Leakage Power:     0.004248 mW
   SPM Opt Area:                    178.524902 um^2

6370435625: global: Timer #0 started at tick 6370435625
6370598125: global: Timer #2 started at tick 6370598125
6370778750: global: Timer #2 stopped at tick 6370778750. Duration: 180625
6371028750: global: DAG ID = 0
6371042500: global: Node ID = 16
6371055625: global: Node deadline difference = -10186
6371068125: global: Predicted memory time / byte = 0.000162597 us/byte
6371080625: global: Predicted memory time = 31.9678 us
6371093125: global: Predicted memory time / byte = 0.000162597 us/byte
6371105625: global: Predicted memory time = 21.3119 us
6371118125: global: Predicted memory time / byte = 0.000181549 us/byte
6371130625: global: Predicted memory time = 11 us
6371143125: global: Predicted memory time / byte = 0 us/byte
6371155625: global: Predicted memory time = 0 us
6372143750: system.acctest.harris_non_max0_dma: SRC:0x0000000024010020, DST:0x0000000026000020, LEN:65536
6372394375: global: Timer #0 stopped at tick 6372394375. Duration: 1958750
6372408750: global: Number of accelerators running = 1
6382404750: system.acctest.harris_non_max0_dma: Transfer completed in 10.261 us
6382500000: global: Timer #0 started at tick 6382500000
6382544375: global: Timer #1 started at tick 6382544375
6382870625: global: Timer #1 stopped at tick 6382870625. Duration: 326250
6383966875: global: Timer #0 stopped at tick 6383966875. Duration: 1466875
6383981250: global: Number of accelerators running = 1
********************************************************************************
system.acctest.harris_non_max0.compute
   ========= Performance Analysis =============
   Setup Time:                      0.004724seconds
   Simulation Time:                 2.101203seconds
   System Clock:                    1.000000GHz
   Transistor Latency:              1ns
   Runtime:                         105010 cycles
   Runtime:                         105.010000 us
   Stalls:                          0 cycles
   Executed Nodes:                  105009 cycles

********************************************************************************
   ========= Performance Analysis =================
   Setup Time:                      4724464.000000ns
   Simulation Time:                 2101202532.000000ns
   System Clock:                    1.000000GHz
   Transistor Latency:              0ns
   Runtime:                         105010 cycles
   Runtime:                         0.000011 seconds
   Stalls:                          0 cycles
       Load Only:                   0 cycles
       Store Only:                  0 cycles
       Compute Only:                0 cycles
       Compute & Store:             0 cycles
       Load & Store:                0 cycles
       Load & Compute:              0 cycles
       Load & Compute & Store:      0 cycles
   Executed Nodes:                  105009 cycles
       Load Only:                   0 cycles
       Store Only:                  0 cycles
       Compute Only:                72241 cycles
       Compute & Store:             16384 cycles
       Load & Store:                0 cycles
       Load & Compute:              16384 cycles
       Load & Compute & Store:      0 cycles

   ========= Runtime FU's ========= (Max | Avg) ===
   Counter FU's:                       2 | 0.167889
   Integer Add/Sub FU's:               2 | 0.261670
   Integer Mul/Div FU's:               0 | 0.000000
   Integer Shifter FU's:               3 | 0.018017
   Integer Bitwise FU's:               1 | 0.472964
   Floating Point Float Add/Sub:       0 | 0.000000
   Floating Point Double Add/Sub:      0 | 0.000000
   Floating Point Float Mul/Div:       0 | 0.000000
   Floating Point Double Mul/Div:      0 | 0.000000
   0 Cycle Compare FU's:              26 | 0.199329
   GEP Instruction FU's:               3 | 0.208571
   Type Conversion FU's:              14 | 0.062158

   ========= Static FU's ==========================
   Counter FU's:                    0
   Integer Add/Sub FU's:            0
   Integer Mul/Div FU's:            0
   Integer Shifter FU's:            0
   Integer Bitwise FU's:            0
   Floating Point Float Add/Sub:    0
   Floating Point Double Add/Sub:   0
   Floating Point Float Mul/Div:    0
   Floating Point Double Mul/Div:   0
   0 Cycle Compare FU's:            0
   GEP Instruction FU's:            0
   Type Conversion FU's:            0
   Other:                           0

   ========= Pipeline Register Usage =============
   Total Number of Registers:       146
   Max Register Usage Per Cycle:    20
   Avg Register Usage Per Cycle:    5.029864
   Avg Register Size (Bytes):       5.546762

   ========= Memory Configuration =================
   Cache Bus Ports:                 0
   Shared Cache Size:               0kB
   Local Bus Ports:                 0
   Private SPM Size:                192kB
   Private Read Ports:              0
   Private Write Ports:             0
   Private Read Bus Width:          64
   Private Write Bus Width:         64
       Memory Reads:                0
       Memory Writes:               0
   ========= Power Analysis ======================
   FU Leakage Power:                0.010458 mW 
   FU Dynamic Power:                2.202634 mW 
   FU Total Power:                  2.213092 mW 

   Registers Leakage Power:          0.002041 mW 
   Registers Dynamic Power:          0.236415 mW 
       Register Reads (Bits):        528188
       Register Writes (Bits):       578368
   Registers Total Power:            0.238456 mW

   SPM Leakage Power:               0.068382 mW
   SPM Read Dynamic Power:          0.522209 mW
   SPM Write Dynamic Power:         0.561696 mW
   SPM Total Power:                 1.152287 mW

   Cache Leakage Power:             0.000000 mW
   Cache Read Dynamic Power:        0.000000 mW
   Cache Write Dynamic Power:       0.000000 mW
   Cache Total Power:               0.000000 mW

   Accelerator Power:               2.451548 mW
   Accelerator Power (SPM):         3.603836 mW
   Accelerator Power (Cache):       2.451548 mW

   ========= Area Analysis =======================
   FU Area:                         799.308228 um^2 (0.000799 mm^2)
   Register Area:                   165.887924 um^2 (0.000166 mm^2)
   SPM Area:                        1011.904012 um^2 (0.001012 mm^2)
   Cache Area:                      0.000000 um^2 (0.000000 mm^2)

   Accelerator Area:                965.196167 um^2 (0.000965 mm^2)
   Accelerator Area (SPM):          1977.100179 um^2 (0.001977 mm^2)
   Accelerator Area (Cache):        965.196167 um^2 (0.000965 mm^2)

   ========= SPM Resizing  =======================
   SPM Optimized Leakage Power:     0.001770 mW
   SPM Opt Area:                    77.453784 um^2

6488800625: global: Timer #0 started at tick 6488800625
6492796625: system.acctest.harris_non_max0_dma: SRC:0x0000000026010020, DST:0x000000008212a500, LEN:16384
6493149375: global: Timer #0 stopped at tick 6493149375. Duration: 4348750
6493163750: global: Number of accelerators running = 1
6494428625: system.acctest.harris_non_max0_dma: Transfer completed in 1.632 us
6494502500: global: Timer #0 started at tick 6494502500
6494556250: global: Timer #1 started at tick 6494556250
6494923125: global: Timer #1 stopped at tick 6494923125. Duration: 366875
6495257500: global: DAG ID = 0
6495271250: global: Node ID = 17
6495301875: global: DAG execution time = 6480
6495320000: global: DAG deadline difference = -10187
6495338750: global: Node deadline difference = -10187
6495351250: global: Predicted memory time / byte = 0.000168318 us/byte
6495363750: global: Predicted memory time = 13.7886 us
6495376250: global: Predicted memory time / byte = 0.000168318 us/byte
6495388750: global: Predicted memory time = 13.7886 us
6495401250: global: Predicted memory time / byte = 0.00015596 us/byte
6495413750: global: Predicted memory time = 10 us
6495426250: global: Predicted memory time / byte = 9.85718e-05 us/byte
6495438750: global: Predicted memory time = 1 us
6495534375: global: Timer #0 stopped at tick 6495534375. Duration: 1031875
6495548750: global: Number of accelerators running = 0
6495626875: global: Number of forwards = 10
6495685000: global: Number of colocations = 3
6495704375: global: Number of DAG deadlines met = 1
6495724375: global: Number of node deadlines met = 18
6495758750: global: Total predicted compute time = 6160 us
Exiting @ tick 6495923125 because m5_exit instruction encountered
