
---------- Begin Simulation Statistics ----------
final_tick                                25372679375                       # Number of ticks from beginning of simulation (restored from checkpoints and never reset)
host_inst_rate                                     71                       # Simulator instruction rate (inst/s)
host_mem_usage                                7100108                       # Number of bytes of host memory used
host_op_rate                                       76                       # Simulator op (including micro ops) rate (op/s)
host_seconds                                  7115.59                       # Real time elapsed on the host
host_tick_rate                                3486967                       # Simulator tick rate (ticks/s)
sim_freq                                 1000000000000                       # Frequency of simulated ticks
sim_insts                                      506270                       # Number of instructions simulated
sim_ops                                        538101                       # Number of ops (including micro ops) simulated
sim_seconds                                  0.024812                       # Number of seconds simulated
sim_ticks                                 24811810000                       # Number of ticks simulated
system.acctest.coherency_bus.snoop_filter.hit_multi_requests            0                       # Number of requests hitting in the snoop filter with multiple (>1) holders of the requested data.
system.acctest.coherency_bus.snoop_filter.hit_multi_snoops            0                       # Number of snoops hitting in the snoop filter with multiple (>1) holders of the requested data.
system.acctest.coherency_bus.snoop_filter.hit_single_requests            0                       # Number of requests hitting in the snoop filter with a single holder of the requested data.
system.acctest.coherency_bus.snoop_filter.hit_single_snoops            0                       # Number of snoops hitting in the snoop filter with a single holder of the requested data.
system.acctest.coherency_bus.snoop_filter.tot_requests            0                       # Total number of requests made to the snoop filter.
system.acctest.coherency_bus.snoop_filter.tot_snoops            0                       # Total number of snoops made to the snoop filter.
system.cf0.dma_read_bytes                           0                       # Number of bytes transfered via DMA reads (not PRD).
system.cf0.dma_read_full_pages                      0                       # Number of full page size DMA reads (not PRD).
system.cf0.dma_read_txs                             0                       # Number of DMA read transactions (not PRD).
system.cf0.dma_write_bytes                          0                       # Number of bytes transfered via DMA writes.
system.cf0.dma_write_full_pages                     0                       # Number of full page size DMA writes.
system.cf0.dma_write_txs                            0                       # Number of DMA write transactions.
system.cpu.branchPred.BTBCorrect                    0                       # Number of correct BTB predictions (this stat may not work properly.
system.cpu.branchPred.BTBHitPct             71.723681                       # BTB Hit Percentage
system.cpu.branchPred.BTBHits                   16249                       # Number of BTB hits
system.cpu.branchPred.BTBLookups                22655                       # Number of BTB lookups
system.cpu.branchPred.RASInCorrect                214                       # Number of incorrect RAS predictions.
system.cpu.branchPred.condIncorrect              3047                       # Number of conditional branches incorrect
system.cpu.branchPred.condPredicted             22933                       # Number of conditional branches predicted
system.cpu.branchPred.indirectHits               1932                       # Number of indirect target hits.
system.cpu.branchPred.indirectLookups            2582                       # Number of indirect predictor lookups.
system.cpu.branchPred.indirectMisses              650                       # Number of indirect misses.
system.cpu.branchPred.lookups                   38982                       # Number of BP lookups
system.cpu.branchPred.usedRAS                    5964                       # Number of times the RAS was used to get a target.
system.cpu.branchPredindirectMispredicted          687                       # Number of mispredicted indirect branches.
system.cpu.committedInsts                      231418                       # Number of instructions committed
system.cpu.committedOps                        245398                       # Number of ops (including micro ops) committed
system.cpu.cpi                               2.424185                       # CPI: cycles per instruction
system.cpu.discardedOps                          8034                       # Number of ops (including micro ops) which were discarded before commit
system.cpu.dtb.accesses                             0                       # DTB accesses
system.cpu.dtb.align_faults                         1                       # Number of TLB faults due to alignment restrictions
system.cpu.dtb.domain_faults                        0                       # Number of TLB faults due to domain restrictions
system.cpu.dtb.flush_entries                        0                       # Number of entries that have been flushed from TLB
system.cpu.dtb.flush_tlb                            0                       # Number of times complete TLB was flushed
system.cpu.dtb.flush_tlb_asid                       0                       # Number of times TLB was flushed by ASID
system.cpu.dtb.flush_tlb_mva                        0                       # Number of times TLB was flushed by MVA
system.cpu.dtb.flush_tlb_mva_asid                   0                       # Number of times TLB was flushed by MVA & ASID
system.cpu.dtb.hits                                 0                       # DTB hits
system.cpu.dtb.inst_accesses                        0                       # ITB inst accesses
system.cpu.dtb.inst_hits                            0                       # ITB inst hits
system.cpu.dtb.inst_misses                          0                       # ITB inst misses
system.cpu.dtb.misses                               0                       # DTB misses
system.cpu.dtb.perms_faults                         0                       # Number of TLB faults due to permissions restrictions
system.cpu.dtb.prefetch_faults                      0                       # Number of TLB faults due to prefetch
system.cpu.dtb.read_accesses                        0                       # DTB read accesses
system.cpu.dtb.read_hits                            0                       # DTB read hits
system.cpu.dtb.read_misses                          0                       # DTB read misses
system.cpu.dtb.stage2_mmu.stage2_tlb.accesses            0                       # DTB accesses
system.cpu.dtb.stage2_mmu.stage2_tlb.align_faults            0                       # Number of TLB faults due to alignment restrictions
system.cpu.dtb.stage2_mmu.stage2_tlb.domain_faults            0                       # Number of TLB faults due to domain restrictions
system.cpu.dtb.stage2_mmu.stage2_tlb.flush_entries            0                       # Number of entries that have been flushed from TLB
system.cpu.dtb.stage2_mmu.stage2_tlb.flush_tlb            0                       # Number of times complete TLB was flushed
system.cpu.dtb.stage2_mmu.stage2_tlb.flush_tlb_asid            0                       # Number of times TLB was flushed by ASID
system.cpu.dtb.stage2_mmu.stage2_tlb.flush_tlb_mva            0                       # Number of times TLB was flushed by MVA
system.cpu.dtb.stage2_mmu.stage2_tlb.flush_tlb_mva_asid            0                       # Number of times TLB was flushed by MVA & ASID
system.cpu.dtb.stage2_mmu.stage2_tlb.hits            0                       # DTB hits
system.cpu.dtb.stage2_mmu.stage2_tlb.inst_accesses            0                       # ITB inst accesses
system.cpu.dtb.stage2_mmu.stage2_tlb.inst_hits            0                       # ITB inst hits
system.cpu.dtb.stage2_mmu.stage2_tlb.inst_misses            0                       # ITB inst misses
system.cpu.dtb.stage2_mmu.stage2_tlb.misses            0                       # DTB misses
system.cpu.dtb.stage2_mmu.stage2_tlb.perms_faults            0                       # Number of TLB faults due to permissions restrictions
system.cpu.dtb.stage2_mmu.stage2_tlb.prefetch_faults            0                       # Number of TLB faults due to prefetch
system.cpu.dtb.stage2_mmu.stage2_tlb.read_accesses            0                       # DTB read accesses
system.cpu.dtb.stage2_mmu.stage2_tlb.read_hits            0                       # DTB read hits
system.cpu.dtb.stage2_mmu.stage2_tlb.read_misses            0                       # DTB read misses
system.cpu.dtb.stage2_mmu.stage2_tlb.walker.walkRequestOrigin_Requested::Data            0                       # Table walker requests started/completed, data/inst
system.cpu.dtb.stage2_mmu.stage2_tlb.walker.walkRequestOrigin_Requested::Inst            0                       # Table walker requests started/completed, data/inst
system.cpu.dtb.stage2_mmu.stage2_tlb.walker.walkRequestOrigin_Requested::total            0                       # Table walker requests started/completed, data/inst
system.cpu.dtb.stage2_mmu.stage2_tlb.walker.walkRequestOrigin_Completed::Data            0                       # Table walker requests started/completed, data/inst
system.cpu.dtb.stage2_mmu.stage2_tlb.walker.walkRequestOrigin_Completed::Inst            0                       # Table walker requests started/completed, data/inst
system.cpu.dtb.stage2_mmu.stage2_tlb.walker.walkRequestOrigin_Completed::total            0                       # Table walker requests started/completed, data/inst
system.cpu.dtb.stage2_mmu.stage2_tlb.walker.walkRequestOrigin::total            0                       # Table walker requests started/completed, data/inst
system.cpu.dtb.stage2_mmu.stage2_tlb.walker.walks            0                       # Table walker walks requested
system.cpu.dtb.stage2_mmu.stage2_tlb.write_accesses            0                       # DTB write accesses
system.cpu.dtb.stage2_mmu.stage2_tlb.write_hits            0                       # DTB write hits
system.cpu.dtb.stage2_mmu.stage2_tlb.write_misses            0                       # DTB write misses
system.cpu.dtb.walker.walkRequestOrigin_Requested::Data            0                       # Table walker requests started/completed, data/inst
system.cpu.dtb.walker.walkRequestOrigin_Requested::Inst            0                       # Table walker requests started/completed, data/inst
system.cpu.dtb.walker.walkRequestOrigin_Requested::total            0                       # Table walker requests started/completed, data/inst
system.cpu.dtb.walker.walkRequestOrigin_Completed::Data            0                       # Table walker requests started/completed, data/inst
system.cpu.dtb.walker.walkRequestOrigin_Completed::Inst            0                       # Table walker requests started/completed, data/inst
system.cpu.dtb.walker.walkRequestOrigin_Completed::total            0                       # Table walker requests started/completed, data/inst
system.cpu.dtb.walker.walkRequestOrigin::total            0                       # Table walker requests started/completed, data/inst
system.cpu.dtb.walker.walks                         0                       # Table walker walks requested
system.cpu.dtb.write_accesses                       0                       # DTB write accesses
system.cpu.dtb.write_hits                           0                       # DTB write hits
system.cpu.dtb.write_misses                         0                       # DTB write misses
system.cpu.fetch2.amo_instructions                  0                       # Number of memory atomic instructions successfully decoded
system.cpu.fetch2.fp_instructions                   0                       # Number of floating point instructions successfully decoded
system.cpu.fetch2.int_instructions             182211                       # Number of integer instructions successfully decoded
system.cpu.fetch2.load_instructions             35731                       # Number of memory load instructions successfully decoded
system.cpu.fetch2.store_instructions            16783                       # Number of memory store instructions successfully decoded
system.cpu.fetch2.vec_instructions                  0                       # Number of SIMD instructions successfully decoded
system.cpu.idleCycles                          274454                       # Total number of cycles that the object has spent stopped
system.cpu.ipc                               0.412510                       # IPC: instructions per cycle
system.cpu.itb.accesses                             0                       # DTB accesses
system.cpu.itb.align_faults                         0                       # Number of TLB faults due to alignment restrictions
system.cpu.itb.domain_faults                        0                       # Number of TLB faults due to domain restrictions
system.cpu.itb.flush_entries                        0                       # Number of entries that have been flushed from TLB
system.cpu.itb.flush_tlb                            0                       # Number of times complete TLB was flushed
system.cpu.itb.flush_tlb_asid                       0                       # Number of times TLB was flushed by ASID
system.cpu.itb.flush_tlb_mva                        0                       # Number of times TLB was flushed by MVA
system.cpu.itb.flush_tlb_mva_asid                   0                       # Number of times TLB was flushed by MVA & ASID
system.cpu.itb.hits                                 0                       # DTB hits
system.cpu.itb.inst_accesses                        0                       # ITB inst accesses
system.cpu.itb.inst_hits                            0                       # ITB inst hits
system.cpu.itb.inst_misses                          0                       # ITB inst misses
system.cpu.itb.misses                               0                       # DTB misses
system.cpu.itb.perms_faults                         0                       # Number of TLB faults due to permissions restrictions
system.cpu.itb.prefetch_faults                      0                       # Number of TLB faults due to prefetch
system.cpu.itb.read_accesses                        0                       # DTB read accesses
system.cpu.itb.read_hits                            0                       # DTB read hits
system.cpu.itb.read_misses                          0                       # DTB read misses
system.cpu.itb.stage2_mmu.stage2_tlb.accesses            0                       # DTB accesses
system.cpu.itb.stage2_mmu.stage2_tlb.align_faults            0                       # Number of TLB faults due to alignment restrictions
system.cpu.itb.stage2_mmu.stage2_tlb.domain_faults            0                       # Number of TLB faults due to domain restrictions
system.cpu.itb.stage2_mmu.stage2_tlb.flush_entries            0                       # Number of entries that have been flushed from TLB
system.cpu.itb.stage2_mmu.stage2_tlb.flush_tlb            0                       # Number of times complete TLB was flushed
system.cpu.itb.stage2_mmu.stage2_tlb.flush_tlb_asid            0                       # Number of times TLB was flushed by ASID
system.cpu.itb.stage2_mmu.stage2_tlb.flush_tlb_mva            0                       # Number of times TLB was flushed by MVA
system.cpu.itb.stage2_mmu.stage2_tlb.flush_tlb_mva_asid            0                       # Number of times TLB was flushed by MVA & ASID
system.cpu.itb.stage2_mmu.stage2_tlb.hits            0                       # DTB hits
system.cpu.itb.stage2_mmu.stage2_tlb.inst_accesses            0                       # ITB inst accesses
system.cpu.itb.stage2_mmu.stage2_tlb.inst_hits            0                       # ITB inst hits
system.cpu.itb.stage2_mmu.stage2_tlb.inst_misses            0                       # ITB inst misses
system.cpu.itb.stage2_mmu.stage2_tlb.misses            0                       # DTB misses
system.cpu.itb.stage2_mmu.stage2_tlb.perms_faults            0                       # Number of TLB faults due to permissions restrictions
system.cpu.itb.stage2_mmu.stage2_tlb.prefetch_faults            0                       # Number of TLB faults due to prefetch
system.cpu.itb.stage2_mmu.stage2_tlb.read_accesses            0                       # DTB read accesses
system.cpu.itb.stage2_mmu.stage2_tlb.read_hits            0                       # DTB read hits
system.cpu.itb.stage2_mmu.stage2_tlb.read_misses            0                       # DTB read misses
system.cpu.itb.stage2_mmu.stage2_tlb.walker.walkRequestOrigin_Requested::Data            0                       # Table walker requests started/completed, data/inst
system.cpu.itb.stage2_mmu.stage2_tlb.walker.walkRequestOrigin_Requested::Inst            0                       # Table walker requests started/completed, data/inst
system.cpu.itb.stage2_mmu.stage2_tlb.walker.walkRequestOrigin_Requested::total            0                       # Table walker requests started/completed, data/inst
system.cpu.itb.stage2_mmu.stage2_tlb.walker.walkRequestOrigin_Completed::Data            0                       # Table walker requests started/completed, data/inst
system.cpu.itb.stage2_mmu.stage2_tlb.walker.walkRequestOrigin_Completed::Inst            0                       # Table walker requests started/completed, data/inst
system.cpu.itb.stage2_mmu.stage2_tlb.walker.walkRequestOrigin_Completed::total            0                       # Table walker requests started/completed, data/inst
system.cpu.itb.stage2_mmu.stage2_tlb.walker.walkRequestOrigin::total            0                       # Table walker requests started/completed, data/inst
system.cpu.itb.stage2_mmu.stage2_tlb.walker.walks            0                       # Table walker walks requested
system.cpu.itb.stage2_mmu.stage2_tlb.write_accesses            0                       # DTB write accesses
system.cpu.itb.stage2_mmu.stage2_tlb.write_hits            0                       # DTB write hits
system.cpu.itb.stage2_mmu.stage2_tlb.write_misses            0                       # DTB write misses
system.cpu.itb.walker.walkRequestOrigin_Requested::Data            0                       # Table walker requests started/completed, data/inst
system.cpu.itb.walker.walkRequestOrigin_Requested::Inst            0                       # Table walker requests started/completed, data/inst
system.cpu.itb.walker.walkRequestOrigin_Requested::total            0                       # Table walker requests started/completed, data/inst
system.cpu.itb.walker.walkRequestOrigin_Completed::Data            0                       # Table walker requests started/completed, data/inst
system.cpu.itb.walker.walkRequestOrigin_Completed::Inst            0                       # Table walker requests started/completed, data/inst
system.cpu.itb.walker.walkRequestOrigin_Completed::total            0                       # Table walker requests started/completed, data/inst
system.cpu.itb.walker.walkRequestOrigin::total            0                       # Table walker requests started/completed, data/inst
system.cpu.itb.walker.walks                         0                       # Table walker walks requested
system.cpu.itb.write_accesses                       0                       # DTB write accesses
system.cpu.itb.write_hits                           0                       # DTB write hits
system.cpu.itb.write_misses                         0                       # DTB write misses
system.cpu.kern.inst.arm                            0                       # number of arm instructions executed
system.cpu.kern.inst.quiesce                      132                       # number of quiesce instructions executed
system.cpu.numCycles                           561000                       # number of cpu cycles simulated
system.cpu.numFetchSuspends                       132                       # Number of times Execute suspended instruction fetching
system.cpu.numWorkItemsCompleted                    0                       # number of work items this cpu completed
system.cpu.numWorkItemsStarted                      0                       # number of work items this cpu started
system.cpu.op_class_0::No_OpClass                   0      0.00%      0.00% # Class of committed instruction
system.cpu.op_class_0::IntAlu                  187206     76.29%     76.29% # Class of committed instruction
system.cpu.op_class_0::IntMult                    454      0.19%     76.47% # Class of committed instruction
system.cpu.op_class_0::IntDiv                       0      0.00%     76.47% # Class of committed instruction
system.cpu.op_class_0::FloatAdd                     0      0.00%     76.47% # Class of committed instruction
system.cpu.op_class_0::FloatCmp                     0      0.00%     76.47% # Class of committed instruction
system.cpu.op_class_0::FloatCvt                     0      0.00%     76.47% # Class of committed instruction
system.cpu.op_class_0::FloatMult                    0      0.00%     76.47% # Class of committed instruction
system.cpu.op_class_0::FloatMultAcc                 0      0.00%     76.47% # Class of committed instruction
system.cpu.op_class_0::FloatDiv                     0      0.00%     76.47% # Class of committed instruction
system.cpu.op_class_0::FloatMisc                    0      0.00%     76.47% # Class of committed instruction
system.cpu.op_class_0::FloatSqrt                    0      0.00%     76.47% # Class of committed instruction
system.cpu.op_class_0::SimdAdd                      0      0.00%     76.47% # Class of committed instruction
system.cpu.op_class_0::SimdAddAcc                   0      0.00%     76.47% # Class of committed instruction
system.cpu.op_class_0::SimdAlu                      0      0.00%     76.47% # Class of committed instruction
system.cpu.op_class_0::SimdCmp                      0      0.00%     76.47% # Class of committed instruction
system.cpu.op_class_0::SimdCvt                      0      0.00%     76.47% # Class of committed instruction
system.cpu.op_class_0::SimdMisc                     0      0.00%     76.47% # Class of committed instruction
system.cpu.op_class_0::SimdMult                     0      0.00%     76.47% # Class of committed instruction
system.cpu.op_class_0::SimdMultAcc                  0      0.00%     76.47% # Class of committed instruction
system.cpu.op_class_0::SimdShift                    0      0.00%     76.47% # Class of committed instruction
system.cpu.op_class_0::SimdShiftAcc                 0      0.00%     76.47% # Class of committed instruction
system.cpu.op_class_0::SimdDiv                      0      0.00%     76.47% # Class of committed instruction
system.cpu.op_class_0::SimdSqrt                     0      0.00%     76.47% # Class of committed instruction
system.cpu.op_class_0::SimdFloatAdd                 0      0.00%     76.47% # Class of committed instruction
system.cpu.op_class_0::SimdFloatAlu                 0      0.00%     76.47% # Class of committed instruction
system.cpu.op_class_0::SimdFloatCmp                 0      0.00%     76.47% # Class of committed instruction
system.cpu.op_class_0::SimdFloatCvt                 0      0.00%     76.47% # Class of committed instruction
system.cpu.op_class_0::SimdFloatDiv                 0      0.00%     76.47% # Class of committed instruction
system.cpu.op_class_0::SimdFloatMisc                0      0.00%     76.47% # Class of committed instruction
system.cpu.op_class_0::SimdFloatMult                0      0.00%     76.47% # Class of committed instruction
system.cpu.op_class_0::SimdFloatMultAcc             0      0.00%     76.47% # Class of committed instruction
system.cpu.op_class_0::SimdFloatSqrt                0      0.00%     76.47% # Class of committed instruction
system.cpu.op_class_0::SimdReduceAdd                0      0.00%     76.47% # Class of committed instruction
system.cpu.op_class_0::SimdReduceAlu                0      0.00%     76.47% # Class of committed instruction
system.cpu.op_class_0::SimdReduceCmp                0      0.00%     76.47% # Class of committed instruction
system.cpu.op_class_0::SimdFloatReduceAdd            0      0.00%     76.47% # Class of committed instruction
system.cpu.op_class_0::SimdFloatReduceCmp            0      0.00%     76.47% # Class of committed instruction
system.cpu.op_class_0::SimdAes                      0      0.00%     76.47% # Class of committed instruction
system.cpu.op_class_0::SimdAesMix                   0      0.00%     76.47% # Class of committed instruction
system.cpu.op_class_0::SimdSha1Hash                 0      0.00%     76.47% # Class of committed instruction
system.cpu.op_class_0::SimdSha1Hash2                0      0.00%     76.47% # Class of committed instruction
system.cpu.op_class_0::SimdSha256Hash               0      0.00%     76.47% # Class of committed instruction
system.cpu.op_class_0::SimdSha256Hash2              0      0.00%     76.47% # Class of committed instruction
system.cpu.op_class_0::SimdShaSigma2                0      0.00%     76.47% # Class of committed instruction
system.cpu.op_class_0::SimdShaSigma3                0      0.00%     76.47% # Class of committed instruction
system.cpu.op_class_0::SimdPredAlu                  0      0.00%     76.47% # Class of committed instruction
system.cpu.op_class_0::MemRead                  34499     14.06%     90.53% # Class of committed instruction
system.cpu.op_class_0::MemWrite                 23239      9.47%    100.00% # Class of committed instruction
system.cpu.op_class_0::FloatMemRead                 0      0.00%    100.00% # Class of committed instruction
system.cpu.op_class_0::FloatMemWrite                0      0.00%    100.00% # Class of committed instruction
system.cpu.op_class_0::IprAccess                    0      0.00%    100.00% # Class of committed instruction
system.cpu.op_class_0::InstPrefetch                 0      0.00%    100.00% # Class of committed instruction
system.cpu.op_class_0::total                   245398                       # Class of committed instruction
system.cpu.quiesceCycles                     39137896                       # Total number of cycles that CPU has spent quiesced or waiting for an interrupt
system.cpu.tickCycles                          286546                       # Number of cycles that the object actually ticked
system.membus.snoop_filter.hit_multi_requests           13                       # Number of requests hitting in the snoop filter with multiple (>1) holders of the requested data.
system.membus.snoop_filter.hit_multi_snoops            0                       # Number of snoops hitting in the snoop filter with multiple (>1) holders of the requested data.
system.membus.snoop_filter.hit_single_requests          201                       # Number of requests hitting in the snoop filter with a single holder of the requested data.
system.membus.snoop_filter.hit_single_snoops            0                       # Number of snoops hitting in the snoop filter with a single holder of the requested data.
system.membus.snoop_filter.tot_requests           645                       # Total number of requests made to the snoop filter.
system.membus.snoop_filter.tot_snoops               0                       # Total number of snoops made to the snoop filter.
system.bridge.pwrStateResidencyTicks::UNDEFINED  25372679375                       # Cumulative time (in ticks) in various power states
system.voltage_domain.voltage                       1                       # Voltage in Volts
system.iocache.pwrStateResidencyTicks::UNDEFINED  25372679375                       # Cumulative time (in ticks) in various power states
system.iocache.blocked_cycles::no_mshrs             0                       # number of cycles access was blocked
system.iocache.blocked_cycles::no_targets            0                       # number of cycles access was blocked
system.iocache.blocked::no_mshrs                    0                       # number of cycles access was blocked
system.iocache.blocked::no_targets                  0                       # number of cycles access was blocked
system.iocache.avg_blocked_cycles::no_mshrs          nan                       # average number of cycles each access was blocked
system.iocache.avg_blocked_cycles::no_targets          nan                       # average number of cycles each access was blocked
system.iocache.replacements                         0                       # number of replacements
system.iocache.tags.pwrStateResidencyTicks::UNDEFINED  25372679375                       # Cumulative time (in ticks) in various power states
system.iocache.tags.tagsinuse                       0                       # Cycle average of tags in use
system.iocache.tags.total_refs                      0                       # Total number of references to valid blocks.
system.iocache.tags.sampled_refs                    0                       # Sample count of references to valid blocks.
system.iocache.tags.avg_refs                      nan                       # Average number of references to valid blocks.
system.iocache.tags.warmup_cycle                    0                       # Cycle when the warmup percentage was hit.
system.iocache.tags.tag_accesses                    0                       # Number of tag accesses
system.iocache.tags.data_accesses                   0                       # Number of data accesses
system.membus.pwrStateResidencyTicks::UNDEFINED  25372679375                       # Cumulative time (in ticks) in various power states
system.membus.trans_dist::ReadReq               21470                       # Transaction distribution
system.membus.trans_dist::ReadResp              21881                       # Transaction distribution
system.membus.trans_dist::WriteReq              28551                       # Transaction distribution
system.membus.trans_dist::WriteResp             28551                       # Transaction distribution
system.membus.trans_dist::WritebackDirty           32                       # Transaction distribution
system.membus.trans_dist::CleanEvict              145                       # Transaction distribution
system.membus.trans_dist::ReadExReq                47                       # Transaction distribution
system.membus.trans_dist::ReadExResp               47                       # Transaction distribution
system.membus.trans_dist::ReadCleanReq            340                       # Transaction distribution
system.membus.trans_dist::ReadSharedReq            71                       # Transaction distribution
system.membus.pkt_count_system.cpu.icache.mem_side::system.realview.bootmem.port          813                       # Packet count per connected master and slave (bytes)
system.membus.pkt_count_system.cpu.icache.mem_side::total          813                       # Packet count per connected master and slave (bytes)
system.membus.pkt_count_system.cpu.dcache.mem_side::system.realview.bootmem.port           63                       # Packet count per connected master and slave (bytes)
system.membus.pkt_count_system.cpu.dcache.mem_side::system.realview.gic.pio          648                       # Packet count per connected master and slave (bytes)
system.membus.pkt_count_system.cpu.dcache.mem_side::system.mem_ctrls.port          217                       # Packet count per connected master and slave (bytes)
system.membus.pkt_count_system.cpu.dcache.mem_side::system.acctest.mem2cls.slave         2506                       # Packet count per connected master and slave (bytes)
system.membus.pkt_count_system.cpu.dcache.mem_side::total         3434                       # Packet count per connected master and slave (bytes)
system.membus.pkt_count_system.acctest.coherency_bus.master[0]::system.mem_ctrls.port        96888                       # Packet count per connected master and slave (bytes)
system.membus.pkt_count_system.acctest.coherency_bus.master[0]::total        96888                       # Packet count per connected master and slave (bytes)
system.membus.pkt_count::total                 101135                       # Packet count per connected master and slave (bytes)
system.membus.pkt_size_system.cpu.icache.mem_side::system.realview.bootmem.port        21760                       # Cumulative packet size per connected master and slave (bytes)
system.membus.pkt_size_system.cpu.icache.mem_side::total        21760                       # Cumulative packet size per connected master and slave (bytes)
system.membus.pkt_size_system.cpu.dcache.mem_side::system.realview.bootmem.port         1920                       # Cumulative packet size per connected master and slave (bytes)
system.membus.pkt_size_system.cpu.dcache.mem_side::system.realview.gic.pio         1296                       # Cumulative packet size per connected master and slave (bytes)
system.membus.pkt_size_system.cpu.dcache.mem_side::system.mem_ctrls.port         7680                       # Cumulative packet size per connected master and slave (bytes)
system.membus.pkt_size_system.cpu.dcache.mem_side::system.acctest.mem2cls.slave         3605                       # Cumulative packet size per connected master and slave (bytes)
system.membus.pkt_size_system.cpu.dcache.mem_side::total        14501                       # Cumulative packet size per connected master and slave (bytes)
system.membus.pkt_size_system.acctest.coherency_bus.master[0]::system.mem_ctrls.port      3099672                       # Cumulative packet size per connected master and slave (bytes)
system.membus.pkt_size_system.acctest.coherency_bus.master[0]::total      3099672                       # Cumulative packet size per connected master and slave (bytes)
system.membus.pkt_size::total                 3135933                       # Cumulative packet size per connected master and slave (bytes)
system.membus.snoops                                0                       # Total snoops (count)
system.membus.snoopTraffic                          0                       # Total snoop traffic (bytes)
system.membus.snoop_fanout::samples             50519                       # Request fanout histogram
system.membus.snoop_fanout::mean             0.000732                       # Request fanout histogram
system.membus.snoop_fanout::stdev            0.027053                       # Request fanout histogram
system.membus.snoop_fanout::underflows              0      0.00%      0.00% # Request fanout histogram
system.membus.snoop_fanout::0                   50482     99.93%     99.93% # Request fanout histogram
system.membus.snoop_fanout::1                      37      0.07%    100.00% # Request fanout histogram
system.membus.snoop_fanout::2                       0      0.00%    100.00% # Request fanout histogram
system.membus.snoop_fanout::3                       0      0.00%    100.00% # Request fanout histogram
system.membus.snoop_fanout::4                       0      0.00%    100.00% # Request fanout histogram
system.membus.snoop_fanout::overflows               0      0.00%    100.00% # Request fanout histogram
system.membus.snoop_fanout::min_value               0                       # Request fanout histogram
system.membus.snoop_fanout::max_value               1                       # Request fanout histogram
system.membus.snoop_fanout::total               50519                       # Request fanout histogram
system.membus.reqLayer6.occupancy           168563625                       # Layer occupancy (ticks)
system.membus.reqLayer6.utilization               0.7                       # Layer utilization (%)
system.membus.reqLayer7.occupancy             3175125                       # Layer occupancy (ticks)
system.membus.reqLayer7.utilization               0.0                       # Layer utilization (%)
system.membus.reqLayer1.occupancy              781280                       # Layer occupancy (ticks)
system.membus.reqLayer1.utilization               0.0                       # Layer utilization (%)
system.membus.reqLayer2.occupancy              628375                       # Layer occupancy (ticks)
system.membus.reqLayer2.utilization               0.0                       # Layer utilization (%)
system.membus.badaddr_responder.pwrStateResidencyTicks::UNDEFINED  25372679375                       # Cumulative time (in ticks) in various power states
system.membus.respLayer4.occupancy            2404515                       # Layer occupancy (ticks)
system.membus.respLayer4.utilization              0.0                       # Layer utilization (%)
system.membus.respLayer7.occupancy          151403835                       # Layer occupancy (ticks)
system.membus.respLayer7.utilization              0.6                       # Layer utilization (%)
system.membus.respLayer3.occupancy            1709750                       # Layer occupancy (ticks)
system.membus.respLayer3.utilization              0.0                       # Layer utilization (%)
system.acctest.harris_non_max0_spm.pwrStateResidencyTicks::UNDEFINED  25372679375                       # Cumulative time (in ticks) in various power states
system.acctest.harris_non_max0_spm.bytes_read::.acctest.harris_non_max0.system.acctest.harris_non_max0        65536                       # Number of bytes read from this memory
system.acctest.harris_non_max0_spm.bytes_read::.acctest.harris_non_max0_dma        16384                       # Number of bytes read from this memory
system.acctest.harris_non_max0_spm.bytes_read::total        81920                       # Number of bytes read from this memory
system.acctest.harris_non_max0_spm.bytes_written::.acctest.harris_non_max0.system.acctest.harris_non_max0        16384                       # Number of bytes written to this memory
system.acctest.harris_non_max0_spm.bytes_written::.acctest.harris_non_max0_dma        65536                       # Number of bytes written to this memory
system.acctest.harris_non_max0_spm.bytes_written::total        81920                       # Number of bytes written to this memory
system.acctest.harris_non_max0_spm.num_reads::.acctest.harris_non_max0.system.acctest.harris_non_max0        16384                       # Number of read requests responded to by this memory
system.acctest.harris_non_max0_spm.num_reads::.acctest.harris_non_max0_dma          512                       # Number of read requests responded to by this memory
system.acctest.harris_non_max0_spm.num_reads::total        16896                       # Number of read requests responded to by this memory
system.acctest.harris_non_max0_spm.num_writes::.acctest.harris_non_max0.system.acctest.harris_non_max0        16384                       # Number of write requests responded to by this memory
system.acctest.harris_non_max0_spm.num_writes::.acctest.harris_non_max0_dma         2048                       # Number of write requests responded to by this memory
system.acctest.harris_non_max0_spm.num_writes::total        18432                       # Number of write requests responded to by this memory
system.acctest.harris_non_max0_spm.bw_read::.acctest.harris_non_max0.system.acctest.harris_non_max0      2641323                       # Total read bandwidth from this memory (bytes/s)
system.acctest.harris_non_max0_spm.bw_read::.acctest.harris_non_max0_dma       660331                       # Total read bandwidth from this memory (bytes/s)
system.acctest.harris_non_max0_spm.bw_read::total      3301654                       # Total read bandwidth from this memory (bytes/s)
system.acctest.harris_non_max0_spm.bw_write::.acctest.harris_non_max0.system.acctest.harris_non_max0       660331                       # Write bandwidth from this memory (bytes/s)
system.acctest.harris_non_max0_spm.bw_write::.acctest.harris_non_max0_dma      2641323                       # Write bandwidth from this memory (bytes/s)
system.acctest.harris_non_max0_spm.bw_write::total      3301654                       # Write bandwidth from this memory (bytes/s)
system.acctest.harris_non_max0_spm.bw_total::.acctest.harris_non_max0.system.acctest.harris_non_max0      3301654                       # Total bandwidth to/from this memory (bytes/s)
system.acctest.harris_non_max0_spm.bw_total::.acctest.harris_non_max0_dma      3301654                       # Total bandwidth to/from this memory (bytes/s)
system.acctest.harris_non_max0_spm.bw_total::total      6603307                       # Total bandwidth to/from this memory (bytes/s)
system.acctest.elem_matrix2_spm.pwrStateResidencyTicks::UNDEFINED  25372679375                       # Cumulative time (in ticks) in various power states
system.acctest.elem_matrix3_spm.pwrStateResidencyTicks::UNDEFINED  25372679375                       # Cumulative time (in ticks) in various power states
system.acctest.local_bus.pwrStateResidencyTicks::UNDEFINED  25372679375                       # Cumulative time (in ticks) in various power states
system.acctest.local_bus.trans_dist::ReadReq       134656                       # Transaction distribution
system.acctest.local_bus.trans_dist::ReadResp       134656                       # Transaction distribution
system.acctest.local_bus.trans_dist::WriteReq       124249                       # Transaction distribution
system.acctest.local_bus.trans_dist::WriteResp       124249                       # Transaction distribution
system.acctest.local_bus.pkt_count_system.acctest.mem2cls.master::system.acctest.canny_non_max0.pio           12                       # Packet count per connected master and slave (bytes)
system.acctest.local_bus.pkt_count_system.acctest.mem2cls.master::system.acctest.canny_non_max0_dma.pio           28                       # Packet count per connected master and slave (bytes)
system.acctest.local_bus.pkt_count_system.acctest.mem2cls.master::system.acctest.convolution0.pio          360                       # Packet count per connected master and slave (bytes)
system.acctest.local_bus.pkt_count_system.acctest.mem2cls.master::system.acctest.convolution0_dma.pio          588                       # Packet count per connected master and slave (bytes)
system.acctest.local_bus.pkt_count_system.acctest.mem2cls.master::system.acctest.edge_tracking0.pio           16                       # Packet count per connected master and slave (bytes)
system.acctest.local_bus.pkt_count_system.acctest.mem2cls.master::system.acctest.edge_tracking0_dma.pio           28                       # Packet count per connected master and slave (bytes)
system.acctest.local_bus.pkt_count_system.acctest.mem2cls.master::system.acctest.elem_matrix0.pio          500                       # Packet count per connected master and slave (bytes)
system.acctest.local_bus.pkt_count_system.acctest.mem2cls.master::system.acctest.elem_matrix0_dma.pio          742                       # Packet count per connected master and slave (bytes)
system.acctest.local_bus.pkt_count_system.acctest.mem2cls.master::system.acctest.grayscale0.pio           30                       # Packet count per connected master and slave (bytes)
system.acctest.local_bus.pkt_count_system.acctest.mem2cls.master::system.acctest.grayscale0_dma.pio           84                       # Packet count per connected master and slave (bytes)
system.acctest.local_bus.pkt_count_system.acctest.mem2cls.master::system.acctest.harris_non_max0.pio           12                       # Packet count per connected master and slave (bytes)
system.acctest.local_bus.pkt_count_system.acctest.mem2cls.master::system.acctest.harris_non_max0_dma.pio           28                       # Packet count per connected master and slave (bytes)
system.acctest.local_bus.pkt_count_system.acctest.mem2cls.master::system.acctest.isp0.pio           36                       # Packet count per connected master and slave (bytes)
system.acctest.local_bus.pkt_count_system.acctest.mem2cls.master::system.acctest.isp0_dma.pio           42                       # Packet count per connected master and slave (bytes)
system.acctest.local_bus.pkt_count_system.acctest.mem2cls.master::total         2506                       # Packet count per connected master and slave (bytes)
system.acctest.local_bus.pkt_count_system.acctest.canny_non_max0_dma.dma::system.acctest.canny_non_max0_spm.port         8192                       # Packet count per connected master and slave (bytes)
system.acctest.local_bus.pkt_count_system.acctest.canny_non_max0_dma.dma::system.acctest.elem_matrix0_spm.port         8192                       # Packet count per connected master and slave (bytes)
system.acctest.local_bus.pkt_count_system.acctest.canny_non_max0_dma.dma::total        16384                       # Packet count per connected master and slave (bytes)
system.acctest.local_bus.pkt_count_system.acctest.convolution0_dma.dma::system.acctest.convolution0_spm.port        98432                       # Packet count per connected master and slave (bytes)
system.acctest.local_bus.pkt_count_system.acctest.convolution0_dma.dma::system.acctest.elem_matrix0_spm.port        40960                       # Packet count per connected master and slave (bytes)
system.acctest.local_bus.pkt_count_system.acctest.convolution0_dma.dma::system.acctest.grayscale0_spm.port        16384                       # Packet count per connected master and slave (bytes)
system.acctest.local_bus.pkt_count_system.acctest.convolution0_dma.dma::total       155776                       # Packet count per connected master and slave (bytes)
system.acctest.local_bus.pkt_count_system.acctest.edge_tracking0_dma.dma::system.acctest.canny_non_max0_spm.port         4096                       # Packet count per connected master and slave (bytes)
system.acctest.local_bus.pkt_count_system.acctest.edge_tracking0_dma.dma::system.acctest.edge_tracking0_spm.port         5120                       # Packet count per connected master and slave (bytes)
system.acctest.local_bus.pkt_count_system.acctest.edge_tracking0_dma.dma::total         9216                       # Packet count per connected master and slave (bytes)
system.acctest.local_bus.pkt_count_system.acctest.elem_matrix0_dma.dma::system.acctest.convolution0_spm.port        77824                       # Packet count per connected master and slave (bytes)
system.acctest.local_bus.pkt_count_system.acctest.elem_matrix0_dma.dma::system.acctest.elem_matrix0_spm.port       212994                       # Packet count per connected master and slave (bytes)
system.acctest.local_bus.pkt_count_system.acctest.elem_matrix0_dma.dma::total       290818                       # Packet count per connected master and slave (bytes)
system.acctest.local_bus.pkt_count_system.acctest.grayscale0_dma.dma::system.acctest.grayscale0_spm.port        21504                       # Packet count per connected master and slave (bytes)
system.acctest.local_bus.pkt_count_system.acctest.grayscale0_dma.dma::system.acctest.isp0_spm.port         9216                       # Packet count per connected master and slave (bytes)
system.acctest.local_bus.pkt_count_system.acctest.grayscale0_dma.dma::total        30720                       # Packet count per connected master and slave (bytes)
system.acctest.local_bus.pkt_count_system.acctest.harris_non_max0_dma.dma::system.acctest.elem_matrix0_spm.port         4096                       # Packet count per connected master and slave (bytes)
system.acctest.local_bus.pkt_count_system.acctest.harris_non_max0_dma.dma::system.acctest.harris_non_max0_spm.port         5120                       # Packet count per connected master and slave (bytes)
system.acctest.local_bus.pkt_count_system.acctest.harris_non_max0_dma.dma::total         9216                       # Packet count per connected master and slave (bytes)
system.acctest.local_bus.pkt_count_system.acctest.isp0_dma.dma::system.acctest.isp0_spm.port         3174                       # Packet count per connected master and slave (bytes)
system.acctest.local_bus.pkt_count_system.acctest.isp0_dma.dma::total         3174                       # Packet count per connected master and slave (bytes)
system.acctest.local_bus.pkt_count::total       517810                       # Packet count per connected master and slave (bytes)
system.acctest.local_bus.pkt_size_system.acctest.mem2cls.master::system.acctest.canny_non_max0.pio           15                       # Cumulative packet size per connected master and slave (bytes)
system.acctest.local_bus.pkt_size_system.acctest.mem2cls.master::system.acctest.canny_non_max0_dma.pio           44                       # Cumulative packet size per connected master and slave (bytes)
system.acctest.local_bus.pkt_size_system.acctest.mem2cls.master::system.acctest.convolution0.pio          504                       # Cumulative packet size per connected master and slave (bytes)
system.acctest.local_bus.pkt_size_system.acctest.mem2cls.master::system.acctest.convolution0_dma.pio          924                       # Cumulative packet size per connected master and slave (bytes)
system.acctest.local_bus.pkt_size_system.acctest.mem2cls.master::system.acctest.edge_tracking0.pio           23                       # Cumulative packet size per connected master and slave (bytes)
system.acctest.local_bus.pkt_size_system.acctest.mem2cls.master::system.acctest.edge_tracking0_dma.pio           44                       # Cumulative packet size per connected master and slave (bytes)
system.acctest.local_bus.pkt_size_system.acctest.mem2cls.master::system.acctest.elem_matrix0.pio          550                       # Cumulative packet size per connected master and slave (bytes)
system.acctest.local_bus.pkt_size_system.acctest.mem2cls.master::system.acctest.elem_matrix0_dma.pio         1166                       # Cumulative packet size per connected master and slave (bytes)
system.acctest.local_bus.pkt_size_system.acctest.mem2cls.master::system.acctest.grayscale0.pio           33                       # Cumulative packet size per connected master and slave (bytes)
system.acctest.local_bus.pkt_size_system.acctest.mem2cls.master::system.acctest.grayscale0_dma.pio          132                       # Cumulative packet size per connected master and slave (bytes)
system.acctest.local_bus.pkt_size_system.acctest.mem2cls.master::system.acctest.harris_non_max0.pio           15                       # Cumulative packet size per connected master and slave (bytes)
system.acctest.local_bus.pkt_size_system.acctest.mem2cls.master::system.acctest.harris_non_max0_dma.pio           44                       # Cumulative packet size per connected master and slave (bytes)
system.acctest.local_bus.pkt_size_system.acctest.mem2cls.master::system.acctest.isp0.pio           45                       # Cumulative packet size per connected master and slave (bytes)
system.acctest.local_bus.pkt_size_system.acctest.mem2cls.master::system.acctest.isp0_dma.pio           66                       # Cumulative packet size per connected master and slave (bytes)
system.acctest.local_bus.pkt_size_system.acctest.mem2cls.master::total         3605                       # Cumulative packet size per connected master and slave (bytes)
system.acctest.local_bus.pkt_size_system.acctest.canny_non_max0_dma.dma::system.acctest.canny_non_max0_spm.port       131072                       # Cumulative packet size per connected master and slave (bytes)
system.acctest.local_bus.pkt_size_system.acctest.canny_non_max0_dma.dma::system.acctest.elem_matrix0_spm.port       131072                       # Cumulative packet size per connected master and slave (bytes)
system.acctest.local_bus.pkt_size_system.acctest.canny_non_max0_dma.dma::total       262144                       # Cumulative packet size per connected master and slave (bytes)
system.acctest.local_bus.pkt_size_system.acctest.convolution0_dma.dma::system.acctest.convolution0_spm.port      1574408                       # Cumulative packet size per connected master and slave (bytes)
system.acctest.local_bus.pkt_size_system.acctest.convolution0_dma.dma::system.acctest.elem_matrix0_spm.port       655360                       # Cumulative packet size per connected master and slave (bytes)
system.acctest.local_bus.pkt_size_system.acctest.convolution0_dma.dma::system.acctest.grayscale0_spm.port       262144                       # Cumulative packet size per connected master and slave (bytes)
system.acctest.local_bus.pkt_size_system.acctest.convolution0_dma.dma::total      2491912                       # Cumulative packet size per connected master and slave (bytes)
system.acctest.local_bus.pkt_size_system.acctest.edge_tracking0_dma.dma::system.acctest.canny_non_max0_spm.port        65536                       # Cumulative packet size per connected master and slave (bytes)
system.acctest.local_bus.pkt_size_system.acctest.edge_tracking0_dma.dma::system.acctest.edge_tracking0_spm.port        81920                       # Cumulative packet size per connected master and slave (bytes)
system.acctest.local_bus.pkt_size_system.acctest.edge_tracking0_dma.dma::total       147456                       # Cumulative packet size per connected master and slave (bytes)
system.acctest.local_bus.pkt_size_system.acctest.elem_matrix0_dma.dma::system.acctest.convolution0_spm.port      1245184                       # Cumulative packet size per connected master and slave (bytes)
system.acctest.local_bus.pkt_size_system.acctest.elem_matrix0_dma.dma::system.acctest.elem_matrix0_spm.port      3407876                       # Cumulative packet size per connected master and slave (bytes)
system.acctest.local_bus.pkt_size_system.acctest.elem_matrix0_dma.dma::total      4653060                       # Cumulative packet size per connected master and slave (bytes)
system.acctest.local_bus.pkt_size_system.acctest.grayscale0_dma.dma::system.acctest.grayscale0_spm.port       344064                       # Cumulative packet size per connected master and slave (bytes)
system.acctest.local_bus.pkt_size_system.acctest.grayscale0_dma.dma::system.acctest.isp0_spm.port       147456                       # Cumulative packet size per connected master and slave (bytes)
system.acctest.local_bus.pkt_size_system.acctest.grayscale0_dma.dma::total       491520                       # Cumulative packet size per connected master and slave (bytes)
system.acctest.local_bus.pkt_size_system.acctest.harris_non_max0_dma.dma::system.acctest.elem_matrix0_spm.port        65536                       # Cumulative packet size per connected master and slave (bytes)
system.acctest.local_bus.pkt_size_system.acctest.harris_non_max0_dma.dma::system.acctest.harris_non_max0_spm.port        81920                       # Cumulative packet size per connected master and slave (bytes)
system.acctest.local_bus.pkt_size_system.acctest.harris_non_max0_dma.dma::total       147456                       # Cumulative packet size per connected master and slave (bytes)
system.acctest.local_bus.pkt_size_system.acctest.isp0_dma.dma::system.acctest.isp0_spm.port        50700                       # Cumulative packet size per connected master and slave (bytes)
system.acctest.local_bus.pkt_size_system.acctest.isp0_dma.dma::total        50700                       # Cumulative packet size per connected master and slave (bytes)
system.acctest.local_bus.pkt_size::total      8247853                       # Cumulative packet size per connected master and slave (bytes)
system.acctest.local_bus.occupancy          702419000                       # Network occupancy (ticks)
system.acctest.local_bus.utilization              2.8                       # Network utilization (%)
system.acctest.local_bus.numRequests           593401                       # Number of requests
system.acctest.local_bus.averageQueuingDelay         1074                       # Average queuing delay (ticks)
system.acctest.local_bus.tailQueuingDelay         8000                       # Tail queuing delay (ticks)
system.acctest.local_bus.averageQueueLength         0.03                       # Average queue length
system.acctest.local_bus.maxQueueLength             5                       # Max queue length
system.acctest.local_bus.reqLayer0.occupancy    627535729                       # Layer occupancy (ticks)
system.acctest.local_bus.reqLayer0.utilization          2.5                       # Layer utilization (%)
system.acctest.local_bus.respLayer0.occupancy    530521000                       # Layer occupancy (ticks)
system.acctest.local_bus.respLayer0.utilization          2.1                       # Layer utilization (%)
system.acctest.isp0.pwrStateResidencyTicks::UNDEFINED  25372679375                       # Cumulative time (in ticks) in various power states
system.acctest.edge_tracking0.pwrStateResidencyTicks::UNDEFINED  25372679375                       # Cumulative time (in ticks) in various power states
system.acctest.grayscale0_spm.pwrStateResidencyTicks::UNDEFINED  25372679375                       # Cumulative time (in ticks) in various power states
system.acctest.grayscale0_spm.bytes_read::.acctest.convolution0_dma       262144                       # Number of bytes read from this memory
system.acctest.grayscale0_spm.bytes_read::.acctest.grayscale0.system.acctest.grayscale0       147456                       # Number of bytes read from this memory
system.acctest.grayscale0_spm.bytes_read::.acctest.grayscale0_dma       196608                       # Number of bytes read from this memory
system.acctest.grayscale0_spm.bytes_read::total       606208                       # Number of bytes read from this memory
system.acctest.grayscale0_spm.bytes_written::.acctest.grayscale0.system.acctest.grayscale0       196608                       # Number of bytes written to this memory
system.acctest.grayscale0_spm.bytes_written::.acctest.grayscale0_dma       147456                       # Number of bytes written to this memory
system.acctest.grayscale0_spm.bytes_written::total       344064                       # Number of bytes written to this memory
system.acctest.grayscale0_spm.num_reads::.acctest.convolution0_dma         8192                       # Number of read requests responded to by this memory
system.acctest.grayscale0_spm.num_reads::.acctest.grayscale0.system.acctest.grayscale0       147456                       # Number of read requests responded to by this memory
system.acctest.grayscale0_spm.num_reads::.acctest.grayscale0_dma         6144                       # Number of read requests responded to by this memory
system.acctest.grayscale0_spm.num_reads::total       161792                       # Number of read requests responded to by this memory
system.acctest.grayscale0_spm.num_writes::.acctest.grayscale0.system.acctest.grayscale0        49152                       # Number of write requests responded to by this memory
system.acctest.grayscale0_spm.num_writes::.acctest.grayscale0_dma         4608                       # Number of write requests responded to by this memory
system.acctest.grayscale0_spm.num_writes::total        53760                       # Number of write requests responded to by this memory
system.acctest.grayscale0_spm.bw_read::.acctest.convolution0_dma     10565291                       # Total read bandwidth from this memory (bytes/s)
system.acctest.grayscale0_spm.bw_read::.acctest.grayscale0.system.acctest.grayscale0      5942976                       # Total read bandwidth from this memory (bytes/s)
system.acctest.grayscale0_spm.bw_read::.acctest.grayscale0_dma      7923968                       # Total read bandwidth from this memory (bytes/s)
system.acctest.grayscale0_spm.bw_read::total     24432236                       # Total read bandwidth from this memory (bytes/s)
system.acctest.grayscale0_spm.bw_write::.acctest.grayscale0.system.acctest.grayscale0      7923968                       # Write bandwidth from this memory (bytes/s)
system.acctest.grayscale0_spm.bw_write::.acctest.grayscale0_dma      5942976                       # Write bandwidth from this memory (bytes/s)
system.acctest.grayscale0_spm.bw_write::total     13866945                       # Write bandwidth from this memory (bytes/s)
system.acctest.grayscale0_spm.bw_total::.acctest.convolution0_dma     10565291                       # Total bandwidth to/from this memory (bytes/s)
system.acctest.grayscale0_spm.bw_total::.acctest.grayscale0.system.acctest.grayscale0     13866945                       # Total bandwidth to/from this memory (bytes/s)
system.acctest.grayscale0_spm.bw_total::.acctest.grayscale0_dma     13866945                       # Total bandwidth to/from this memory (bytes/s)
system.acctest.grayscale0_spm.bw_total::total     38299181                       # Total bandwidth to/from this memory (bytes/s)
system.acctest.elem_matrix1_dma.pwrStateResidencyTicks::UNDEFINED  25372679375                       # Cumulative time (in ticks) in various power states
system.acctest.mem2cls.pwrStateResidencyTicks::UNDEFINED  25372679375                       # Cumulative time (in ticks) in various power states
system.acctest.isp0_dma.pwrStateResidencyTicks::UNDEFINED  25372679375                       # Cumulative time (in ticks) in various power states
system.acctest.grayscale0_dma.pwrStateResidencyTicks::UNDEFINED  25372679375                       # Cumulative time (in ticks) in various power states
system.acctest.convolution0.pwrStateResidencyTicks::UNDEFINED  25372679375                       # Cumulative time (in ticks) in various power states
system.acctest.convolution1.pwrStateResidencyTicks::UNDEFINED  25372679375                       # Cumulative time (in ticks) in various power states
system.acctest.isp0_spm.pwrStateResidencyTicks::UNDEFINED  25372679375                       # Cumulative time (in ticks) in various power states
system.acctest.isp0_spm.bytes_read::.acctest.grayscale0_dma       147456                       # Number of bytes read from this memory
system.acctest.isp0_spm.bytes_read::.acctest.isp0.system.acctest.isp0       344064                       # Number of bytes read from this memory
system.acctest.isp0_spm.bytes_read::total       491520                       # Number of bytes read from this memory
system.acctest.isp0_spm.bytes_written::.acctest.isp0.system.acctest.isp0       147456                       # Number of bytes written to this memory
system.acctest.isp0_spm.bytes_written::.acctest.isp0_dma        50700                       # Number of bytes written to this memory
system.acctest.isp0_spm.bytes_written::total       198156                       # Number of bytes written to this memory
system.acctest.isp0_spm.num_reads::.acctest.grayscale0_dma         4608                       # Number of read requests responded to by this memory
system.acctest.isp0_spm.num_reads::.acctest.isp0.system.acctest.isp0       344064                       # Number of read requests responded to by this memory
system.acctest.isp0_spm.num_reads::total       348672                       # Number of read requests responded to by this memory
system.acctest.isp0_spm.num_writes::.acctest.isp0.system.acctest.isp0       147456                       # Number of write requests responded to by this memory
system.acctest.isp0_spm.num_writes::.acctest.isp0_dma         1587                       # Number of write requests responded to by this memory
system.acctest.isp0_spm.num_writes::total       149043                       # Number of write requests responded to by this memory
system.acctest.isp0_spm.bw_read::.acctest.grayscale0_dma      5942976                       # Total read bandwidth from this memory (bytes/s)
system.acctest.isp0_spm.bw_read::.acctest.isp0.system.acctest.isp0     13866945                       # Total read bandwidth from this memory (bytes/s)
system.acctest.isp0_spm.bw_read::total       19809921                       # Total read bandwidth from this memory (bytes/s)
system.acctest.isp0_spm.bw_write::.acctest.isp0.system.acctest.isp0      5942976                       # Write bandwidth from this memory (bytes/s)
system.acctest.isp0_spm.bw_write::.acctest.isp0_dma      2043382                       # Write bandwidth from this memory (bytes/s)
system.acctest.isp0_spm.bw_write::total       7986358                       # Write bandwidth from this memory (bytes/s)
system.acctest.isp0_spm.bw_total::.acctest.grayscale0_dma      5942976                       # Total bandwidth to/from this memory (bytes/s)
system.acctest.isp0_spm.bw_total::.acctest.isp0.system.acctest.isp0     19809921                       # Total bandwidth to/from this memory (bytes/s)
system.acctest.isp0_spm.bw_total::.acctest.isp0_dma      2043382                       # Total bandwidth to/from this memory (bytes/s)
system.acctest.isp0_spm.bw_total::total      27796279                       # Total bandwidth to/from this memory (bytes/s)
system.acctest.coherency_bus.pwrStateResidencyTicks::UNDEFINED  25372679375                       # Cumulative time (in ticks) in various power states
system.acctest.coherency_bus.trans_dist::ReadReq        21308                       # Transaction distribution
system.acctest.coherency_bus.trans_dist::ReadResp        21308                       # Transaction distribution
system.acctest.coherency_bus.trans_dist::WriteReq        27136                       # Transaction distribution
system.acctest.coherency_bus.trans_dist::WriteResp        27136                       # Transaction distribution
system.acctest.coherency_bus.pkt_count_system.acctest.convolution0_dma.dma::system.membus.slave[7]        20544                       # Packet count per connected master and slave (bytes)
system.acctest.coherency_bus.pkt_count_system.acctest.edge_tracking0_dma.dma::system.membus.slave[7]          512                       # Packet count per connected master and slave (bytes)
system.acctest.coherency_bus.pkt_count_system.acctest.elem_matrix0_dma.dma::system.membus.slave[7]        67586                       # Packet count per connected master and slave (bytes)
system.acctest.coherency_bus.pkt_count_system.acctest.grayscale0_dma.dma::system.membus.slave[7]         6144                       # Packet count per connected master and slave (bytes)
system.acctest.coherency_bus.pkt_count_system.acctest.harris_non_max0_dma.dma::system.membus.slave[7]          512                       # Packet count per connected master and slave (bytes)
system.acctest.coherency_bus.pkt_count_system.acctest.isp0_dma.dma::system.membus.slave[7]         1590                       # Packet count per connected master and slave (bytes)
system.acctest.coherency_bus.pkt_count::total        96888                       # Packet count per connected master and slave (bytes)
system.acctest.coherency_bus.pkt_size_system.acctest.convolution0_dma.dma::system.membus.slave[7]       656904                       # Cumulative packet size per connected master and slave (bytes)
system.acctest.coherency_bus.pkt_size_system.acctest.edge_tracking0_dma.dma::system.membus.slave[7]        16384                       # Cumulative packet size per connected master and slave (bytes)
system.acctest.coherency_bus.pkt_size_system.acctest.elem_matrix0_dma.dma::system.membus.slave[7]      2162692                       # Cumulative packet size per connected master and slave (bytes)
system.acctest.coherency_bus.pkt_size_system.acctest.grayscale0_dma.dma::system.membus.slave[7]       196608                       # Cumulative packet size per connected master and slave (bytes)
system.acctest.coherency_bus.pkt_size_system.acctest.harris_non_max0_dma.dma::system.membus.slave[7]        16384                       # Cumulative packet size per connected master and slave (bytes)
system.acctest.coherency_bus.pkt_size_system.acctest.isp0_dma.dma::system.membus.slave[7]        50700                       # Cumulative packet size per connected master and slave (bytes)
system.acctest.coherency_bus.pkt_size::total      3099672                       # Cumulative packet size per connected master and slave (bytes)
system.acctest.coherency_bus.snoops                 0                       # Total snoops (count)
system.acctest.coherency_bus.snoopTraffic            0                       # Total snoop traffic (bytes)
system.acctest.coherency_bus.snoop_fanout::samples        60245                       # Request fanout histogram
system.acctest.coherency_bus.snoop_fanout::mean            0                       # Request fanout histogram
system.acctest.coherency_bus.snoop_fanout::stdev            0                       # Request fanout histogram
system.acctest.coherency_bus.snoop_fanout::underflows            0      0.00%      0.00% # Request fanout histogram
system.acctest.coherency_bus.snoop_fanout::0        60245    100.00%    100.00% # Request fanout histogram
system.acctest.coherency_bus.snoop_fanout::overflows            0      0.00%    100.00% # Request fanout histogram
system.acctest.coherency_bus.snoop_fanout::min_value            0                       # Request fanout histogram
system.acctest.coherency_bus.snoop_fanout::max_value            0                       # Request fanout histogram
system.acctest.coherency_bus.snoop_fanout::total        60245                       # Request fanout histogram
system.acctest.coherency_bus.reqLayer0.occupancy    180027500                       # Layer occupancy (ticks)
system.acctest.coherency_bus.reqLayer0.utilization          0.7                       # Layer utilization (%)
system.acctest.coherency_bus.respLayer0.occupancy    133646000                       # Layer occupancy (ticks)
system.acctest.coherency_bus.respLayer0.utilization          0.5                       # Layer utilization (%)
system.acctest.convolution0_spm.pwrStateResidencyTicks::UNDEFINED  25372679375                       # Cumulative time (in ticks) in various power states
system.acctest.convolution0_spm.bytes_read::.acctest.convolution0.system.acctest.convolution0     49688640                       # Number of bytes read from this memory
system.acctest.convolution0_spm.bytes_read::.acctest.convolution0_dma       458752                       # Number of bytes read from this memory
system.acctest.convolution0_spm.bytes_read::.acctest.elem_matrix0_dma      1245184                       # Number of bytes read from this memory
system.acctest.convolution0_spm.bytes_read::total     51392576                       # Number of bytes read from this memory
system.acctest.convolution0_spm.bytes_written::.acctest.convolution0.system.acctest.convolution0      1179648                       # Number of bytes written to this memory
system.acctest.convolution0_spm.bytes_written::.acctest.convolution0_dma      1115656                       # Number of bytes written to this memory
system.acctest.convolution0_spm.bytes_written::total      2295304                       # Number of bytes written to this memory
system.acctest.convolution0_spm.num_reads::.acctest.convolution0.system.acctest.convolution0     12422160                       # Number of read requests responded to by this memory
system.acctest.convolution0_spm.num_reads::.acctest.convolution0_dma        14336                       # Number of read requests responded to by this memory
system.acctest.convolution0_spm.num_reads::.acctest.elem_matrix0_dma        38912                       # Number of read requests responded to by this memory
system.acctest.convolution0_spm.num_reads::total     12475408                       # Number of read requests responded to by this memory
system.acctest.convolution0_spm.num_writes::.acctest.convolution0.system.acctest.convolution0       294912                       # Number of write requests responded to by this memory
system.acctest.convolution0_spm.num_writes::.acctest.convolution0_dma        34880                       # Number of write requests responded to by this memory
system.acctest.convolution0_spm.num_writes::total       329792                       # Number of write requests responded to by this memory
system.acctest.convolution0_spm.bw_read::.acctest.convolution0.system.acctest.convolution0   2002620526                       # Total read bandwidth from this memory (bytes/s)
system.acctest.convolution0_spm.bw_read::.acctest.convolution0_dma     18489260                       # Total read bandwidth from this memory (bytes/s)
system.acctest.convolution0_spm.bw_read::.acctest.elem_matrix0_dma     50185134                       # Total read bandwidth from this memory (bytes/s)
system.acctest.convolution0_spm.bw_read::total   2071294920                       # Total read bandwidth from this memory (bytes/s)
system.acctest.convolution0_spm.bw_write::.acctest.convolution0.system.acctest.convolution0     47543811                       # Write bandwidth from this memory (bytes/s)
system.acctest.convolution0_spm.bw_write::.acctest.convolution0_dma     44964716                       # Write bandwidth from this memory (bytes/s)
system.acctest.convolution0_spm.bw_write::total     92508527                       # Write bandwidth from this memory (bytes/s)
system.acctest.convolution0_spm.bw_total::.acctest.convolution0.system.acctest.convolution0   2050164337                       # Total bandwidth to/from this memory (bytes/s)
system.acctest.convolution0_spm.bw_total::.acctest.convolution0_dma     63453976                       # Total bandwidth to/from this memory (bytes/s)
system.acctest.convolution0_spm.bw_total::.acctest.elem_matrix0_dma     50185134                       # Total bandwidth to/from this memory (bytes/s)
system.acctest.convolution0_spm.bw_total::total   2163803447                       # Total bandwidth to/from this memory (bytes/s)
system.acctest.elem_matrix0_dma.pwrStateResidencyTicks::UNDEFINED  25372679375                       # Cumulative time (in ticks) in various power states
system.acctest.grayscale0.pwrStateResidencyTicks::UNDEFINED  25372679375                       # Cumulative time (in ticks) in various power states
system.acctest.canny_non_max0.pwrStateResidencyTicks::UNDEFINED  25372679375                       # Cumulative time (in ticks) in various power states
system.acctest.elem_matrix0_spm.pwrStateResidencyTicks::UNDEFINED  25372679375                       # Cumulative time (in ticks) in various power states
system.acctest.elem_matrix0_spm.bytes_read::.acctest.canny_non_max0_dma       131072                       # Number of bytes read from this memory
system.acctest.elem_matrix0_spm.bytes_read::.acctest.convolution0_dma       655360                       # Number of bytes read from this memory
system.acctest.elem_matrix0_spm.bytes_read::.acctest.elem_matrix0.system.acctest.elem_matrix0      2752516                       # Number of bytes read from this memory
system.acctest.elem_matrix0_spm.bytes_read::.acctest.elem_matrix0_dma      1048576                       # Number of bytes read from this memory
system.acctest.elem_matrix0_spm.bytes_read::.acctest.harris_non_max0_dma        65536                       # Number of bytes read from this memory
system.acctest.elem_matrix0_spm.bytes_read::total      4653060                       # Number of bytes read from this memory
system.acctest.elem_matrix0_spm.bytes_written::.acctest.elem_matrix0.system.acctest.elem_matrix0      1638400                       # Number of bytes written to this memory
system.acctest.elem_matrix0_spm.bytes_written::.acctest.elem_matrix0_dma      2359300                       # Number of bytes written to this memory
system.acctest.elem_matrix0_spm.bytes_written::total      3997700                       # Number of bytes written to this memory
system.acctest.elem_matrix0_spm.num_reads::.acctest.canny_non_max0_dma         4096                       # Number of read requests responded to by this memory
system.acctest.elem_matrix0_spm.num_reads::.acctest.convolution0_dma        20480                       # Number of read requests responded to by this memory
system.acctest.elem_matrix0_spm.num_reads::.acctest.elem_matrix0.system.acctest.elem_matrix0       688129                       # Number of read requests responded to by this memory
system.acctest.elem_matrix0_spm.num_reads::.acctest.elem_matrix0_dma        32768                       # Number of read requests responded to by this memory
system.acctest.elem_matrix0_spm.num_reads::.acctest.harris_non_max0_dma         2048                       # Number of read requests responded to by this memory
system.acctest.elem_matrix0_spm.num_reads::total       747521                       # Number of read requests responded to by this memory
system.acctest.elem_matrix0_spm.num_writes::.acctest.elem_matrix0.system.acctest.elem_matrix0       409600                       # Number of write requests responded to by this memory
system.acctest.elem_matrix0_spm.num_writes::.acctest.elem_matrix0_dma        73729                       # Number of write requests responded to by this memory
system.acctest.elem_matrix0_spm.num_writes::total       483329                       # Number of write requests responded to by this memory
system.acctest.elem_matrix0_spm.bw_read::.acctest.canny_non_max0_dma      5282646                       # Total read bandwidth from this memory (bytes/s)
system.acctest.elem_matrix0_spm.bw_read::.acctest.convolution0_dma     26413228                       # Total read bandwidth from this memory (bytes/s)
system.acctest.elem_matrix0_spm.bw_read::.acctest.elem_matrix0.system.acctest.elem_matrix0    110935720                       # Total read bandwidth from this memory (bytes/s)
system.acctest.elem_matrix0_spm.bw_read::.acctest.elem_matrix0_dma     42261165                       # Total read bandwidth from this memory (bytes/s)
system.acctest.elem_matrix0_spm.bw_read::.acctest.harris_non_max0_dma      2641323                       # Total read bandwidth from this memory (bytes/s)
system.acctest.elem_matrix0_spm.bw_read::total    187534082                       # Total read bandwidth from this memory (bytes/s)
system.acctest.elem_matrix0_spm.bw_write::.acctest.elem_matrix0.system.acctest.elem_matrix0     66033071                       # Write bandwidth from this memory (bytes/s)
system.acctest.elem_matrix0_spm.bw_write::.acctest.elem_matrix0_dma     95087783                       # Write bandwidth from this memory (bytes/s)
system.acctest.elem_matrix0_spm.bw_write::total    161120853                       # Write bandwidth from this memory (bytes/s)
system.acctest.elem_matrix0_spm.bw_total::.acctest.canny_non_max0_dma      5282646                       # Total bandwidth to/from this memory (bytes/s)
system.acctest.elem_matrix0_spm.bw_total::.acctest.convolution0_dma     26413228                       # Total bandwidth to/from this memory (bytes/s)
system.acctest.elem_matrix0_spm.bw_total::.acctest.elem_matrix0.system.acctest.elem_matrix0    176968790                       # Total bandwidth to/from this memory (bytes/s)
system.acctest.elem_matrix0_spm.bw_total::.acctest.elem_matrix0_dma    137348948                       # Total bandwidth to/from this memory (bytes/s)
system.acctest.elem_matrix0_spm.bw_total::.acctest.harris_non_max0_dma      2641323                       # Total bandwidth to/from this memory (bytes/s)
system.acctest.elem_matrix0_spm.bw_total::total    348654935                       # Total bandwidth to/from this memory (bytes/s)
[...]
system.cpu.icache.ReadReq_misses::total           340                       # number of ReadReq misses
system.cpu.icache.ReadReq_miss_latency::.cpu.inst     14770000                       # number of ReadReq miss cycles
system.cpu.icache.ReadReq_miss_latency::total     14770000                       # number of ReadReq miss cycles
system.cpu.icache.ReadReq_accesses::.cpu.inst        77452                       # number of ReadReq accesses(hits+misses)
system.cpu.icache.ReadReq_accesses::total        77452                       # number of ReadReq accesses(hits+misses)
system.cpu.icache.ReadReq_miss_rate::.cpu.inst     0.004390                       # miss rate for ReadReq accesses
system.cpu.icache.ReadReq_miss_rate::total     0.004390                       # miss rate for ReadReq accesses
system.cpu.icache.ReadReq_avg_miss_latency::.cpu.inst 43441.176471                       # average ReadReq miss latency
system.cpu.icache.ReadReq_avg_miss_latency::total 43441.176471                       # average ReadReq miss latency
system.cpu.icache.ReadReq_mshr_misses::.cpu.inst          340                       # number of ReadReq MSHR misses
system.cpu.icache.ReadReq_mshr_misses::total          340                       # number of ReadReq MSHR misses
system.cpu.icache.ReadReq_mshr_miss_latency::.cpu.inst     14237625                       # number of ReadReq MSHR miss cycles
system.cpu.icache.ReadReq_mshr_miss_latency::total     14237625                       # number of ReadReq MSHR miss cycles
system.cpu.icache.ReadReq_mshr_miss_rate::.cpu.inst     0.004390                       # mshr miss rate for ReadReq accesses
system.cpu.icache.ReadReq_mshr_miss_rate::total     0.004390                       # mshr miss rate for ReadReq accesses
system.cpu.icache.ReadReq_avg_mshr_miss_latency::.cpu.inst 41875.367647                       # average ReadReq mshr miss latency
system.cpu.icache.ReadReq_avg_mshr_miss_latency::total 41875.367647                       # average ReadReq mshr miss latency
system.cpu.icache.tags.pwrStateResidencyTicks::UNDEFINED  25372765000                       # Cumulative time (in ticks) in various power states
system.cpu.icache.tags.tagsinuse           439.696655                       # Cycle average of tags in use
system.cpu.icache.tags.total_refs              223547                       # Total number of references to valid blocks.
system.cpu.icache.tags.sampled_refs               588                       # Sample count of references to valid blocks.
system.cpu.icache.tags.avg_refs            380.181973                       # Average number of references to valid blocks.
system.cpu.icache.tags.warmup_cycle                 0                       # Cycle when the warmup percentage was hit.
system.cpu.icache.tags.occ_blocks::.cpu.inst   439.696655                       # Average occupied blocks per requestor
system.cpu.icache.tags.occ_percent::.cpu.inst     0.858783                       # Average percentage of cache occupancy
system.cpu.icache.tags.occ_percent::total     0.858783                       # Average percentage of cache occupancy
system.cpu.icache.tags.occ_task_id_blocks::1024          455                       # Occupied blocks per task id
system.cpu.icache.tags.age_task_id_blocks_1024::0            2                       # Occupied blocks per task id
system.cpu.icache.tags.age_task_id_blocks_1024::3           31                       # Occupied blocks per task id
system.cpu.icache.tags.age_task_id_blocks_1024::4          422                       # Occupied blocks per task id
system.cpu.icache.tags.occ_task_id_percent::1024     0.888672                       # Percentage of cache occupancy per task id
system.cpu.icache.tags.tag_accesses            155244                       # Number of tag accesses
system.cpu.icache.tags.data_accesses           155244                       # Number of data accesses
system.cpu.dtb.walker.pwrStateResidencyTicks::UNDEFINED  25372765000                       # Cumulative time (in ticks) in various power states
system.cpu.dtb.stage2_mmu.stage2_tlb.walker.pwrStateResidencyTicks::UNDEFINED  25372765000                       # Cumulative time (in ticks) in various power states
system.cpu.dcache.pwrStateResidencyTicks::UNDEFINED  25372765000                       # Cumulative time (in ticks) in various power states
system.cpu.dcache.demand_hits::.cpu.data        57173                       # number of demand (read+write) hits
system.cpu.dcache.demand_hits::total            57173                       # number of demand (read+write) hits
system.cpu.dcache.overall_hits::.cpu.data        57173                       # number of overall hits
system.cpu.dcache.overall_hits::total           57173                       # number of overall hits
system.cpu.dcache.demand_misses::.cpu.data          149                       # number of demand (read+write) misses
system.cpu.dcache.demand_misses::total            149                       # number of demand (read+write) misses
system.cpu.dcache.overall_misses::.cpu.data          149                       # number of overall misses
system.cpu.dcache.overall_misses::total           149                       # number of overall misses
system.cpu.dcache.demand_miss_latency::.cpu.data     11727875                       # number of demand (read+write) miss cycles
system.cpu.dcache.demand_miss_latency::total     11727875                       # number of demand (read+write) miss cycles
system.cpu.dcache.overall_miss_latency::.cpu.data     11727875                       # number of overall miss cycles
system.cpu.dcache.overall_miss_latency::total     11727875                       # number of overall miss cycles
system.cpu.dcache.demand_accesses::.cpu.data        57322                       # number of demand (read+write) accesses
system.cpu.dcache.demand_accesses::total        57322                       # number of demand (read+write) accesses
system.cpu.dcache.overall_accesses::.cpu.data        57322                       # number of overall (read+write) accesses
system.cpu.dcache.overall_accesses::total        57322                       # number of overall (read+write) accesses
system.cpu.dcache.demand_miss_rate::.cpu.data     0.002599                       # miss rate for demand accesses
system.cpu.dcache.demand_miss_rate::total     0.002599                       # miss rate for demand accesses
system.cpu.dcache.overall_miss_rate::.cpu.data     0.002599                       # miss rate for overall accesses
system.cpu.dcache.overall_miss_rate::total     0.002599                       # miss rate for overall accesses
system.cpu.dcache.demand_avg_miss_latency::.cpu.data 78710.570470                       # average overall miss latency
system.cpu.dcache.demand_avg_miss_latency::total 78710.570470                       # average overall miss latency
system.cpu.dcache.overall_avg_miss_latency::.cpu.data 78710.570470                       # average overall miss latency
system.cpu.dcache.overall_avg_miss_latency::total 78710.570470                       # average overall miss latency
system.cpu.dcache.blocked_cycles::no_mshrs            0                       # number of cycles access was blocked
system.cpu.dcache.blocked_cycles::no_targets            0                       # number of cycles access was blocked
system.cpu.dcache.blocked::no_mshrs                 0                       # number of cycles access was blocked
system.cpu.dcache.blocked::no_targets               0                       # number of cycles access was blocked
system.cpu.dcache.avg_blocked_cycles::no_mshrs          nan                       # average number of cycles each access was blocked
system.cpu.dcache.avg_blocked_cycles::no_targets          nan                       # average number of cycles each access was blocked
system.cpu.dcache.writebacks::.writebacks           33                       # number of writebacks
system.cpu.dcache.writebacks::total                33                       # number of writebacks
system.cpu.dcache.demand_mshr_hits::.cpu.data           30                       # number of demand (read+write) MSHR hits
system.cpu.dcache.demand_mshr_hits::total           30                       # number of demand (read+write) MSHR hits
system.cpu.dcache.overall_mshr_hits::.cpu.data           30                       # number of overall MSHR hits
system.cpu.dcache.overall_mshr_hits::total           30                       # number of overall MSHR hits
system.cpu.dcache.demand_mshr_misses::.cpu.data          119                       # number of demand (read+write) MSHR misses
system.cpu.dcache.demand_mshr_misses::total          119                       # number of demand (read+write) MSHR misses
system.cpu.dcache.overall_mshr_misses::.cpu.data          119                       # number of overall MSHR misses
system.cpu.dcache.overall_mshr_misses::total          119                       # number of overall MSHR misses
system.cpu.dcache.overall_mshr_uncacheable_misses::.cpu.data         1577                       # number of overall MSHR uncacheable misses
system.cpu.dcache.overall_mshr_uncacheable_misses::total         1577                       # number of overall MSHR uncacheable misses
system.cpu.dcache.demand_mshr_miss_latency::.cpu.data      9106375                       # number of demand (read+write) MSHR miss cycles
system.cpu.dcache.demand_mshr_miss_latency::total      9106375                       # number of demand (read+write) MSHR miss cycles
system.cpu.dcache.overall_mshr_miss_latency::.cpu.data      9106375                       # number of overall MSHR miss cycles
system.cpu.dcache.overall_mshr_miss_latency::total      9106375                       # number of overall MSHR miss cycles
system.cpu.dcache.overall_mshr_uncacheable_latency::.cpu.data      3518750                       # number of overall MSHR uncacheable cycles
system.cpu.dcache.overall_mshr_uncacheable_latency::total      3518750                       # number of overall MSHR uncacheable cycles
system.cpu.dcache.demand_mshr_miss_rate::.cpu.data     0.002076                       # mshr miss rate for demand accesses
system.cpu.dcache.demand_mshr_miss_rate::total     0.002076                       # mshr miss rate for demand accesses
system.cpu.dcache.overall_mshr_miss_rate::.cpu.data     0.002076                       # mshr miss rate for overall accesses
system.cpu.dcache.overall_mshr_miss_rate::total     0.002076                       # mshr miss rate for overall accesses
system.cpu.dcache.demand_avg_mshr_miss_latency::.cpu.data 76524.159664                       # average overall mshr miss latency
system.cpu.dcache.demand_avg_mshr_miss_latency::total 76524.159664                       # average overall mshr miss latency
system.cpu.dcache.overall_avg_mshr_miss_latency::.cpu.data 76524.159664                       # average overall mshr miss latency
system.cpu.dcache.overall_avg_mshr_miss_latency::total 76524.159664                       # average overall mshr miss latency
system.cpu.dcache.overall_avg_mshr_uncacheable_latency::.cpu.data  2231.293595                       # average overall mshr uncacheable latency
system.cpu.dcache.overall_avg_mshr_uncacheable_latency::total  2231.293595                       # average overall mshr uncacheable latency
system.cpu.dcache.replacements                     45                       # number of replacements
system.cpu.dcache.ReadReq_hits::.cpu.data        35510                       # number of ReadReq hits
system.cpu.dcache.ReadReq_hits::total           35510                       # number of ReadReq hits
system.cpu.dcache.ReadReq_misses::.cpu.data           73                       # number of ReadReq misses
system.cpu.dcache.ReadReq_misses::total            73                       # number of ReadReq misses
system.cpu.dcache.ReadReq_miss_latency::.cpu.data      5408375                       # number of ReadReq miss cycles
system.cpu.dcache.ReadReq_miss_latency::total      5408375                       # number of ReadReq miss cycles
system.cpu.dcache.ReadReq_accesses::.cpu.data        35583                       # number of ReadReq accesses(hits+misses)
system.cpu.dcache.ReadReq_accesses::total        35583                       # number of ReadReq accesses(hits+misses)
system.cpu.dcache.ReadReq_miss_rate::.cpu.data     0.002052                       # miss rate for ReadReq accesses
system.cpu.dcache.ReadReq_miss_rate::total     0.002052                       # miss rate for ReadReq accesses
system.cpu.dcache.ReadReq_avg_miss_latency::.cpu.data 74087.328767                       # average ReadReq miss latency
system.cpu.dcache.ReadReq_avg_miss_latency::total 74087.328767                       # average ReadReq miss latency
system.cpu.dcache.ReadReq_mshr_hits::.cpu.data            1                       # number of ReadReq MSHR hits
system.cpu.dcache.ReadReq_mshr_hits::total            1                       # number of ReadReq MSHR hits
system.cpu.dcache.ReadReq_mshr_misses::.cpu.data           72                       # number of ReadReq MSHR misses
system.cpu.dcache.ReadReq_mshr_misses::total           72                       # number of ReadReq MSHR misses
system.cpu.dcache.ReadReq_mshr_uncacheable::.cpu.data          162                       # number of ReadReq MSHR uncacheable
system.cpu.dcache.ReadReq_mshr_uncacheable::total          162                       # number of ReadReq MSHR uncacheable
system.cpu.dcache.ReadReq_mshr_miss_latency::.cpu.data      5253000                       # number of ReadReq MSHR miss cycles
system.cpu.dcache.ReadReq_mshr_miss_latency::total      5253000                       # number of ReadReq MSHR miss cycles
system.cpu.dcache.ReadReq_mshr_uncacheable_latency::.cpu.data      3518750                       # number of ReadReq MSHR uncacheable cycles
system.cpu.dcache.ReadReq_mshr_uncacheable_latency::total      3518750                       # number of ReadReq MSHR uncacheable cycles
system.cpu.dcache.ReadReq_mshr_miss_rate::.cpu.data     0.002023                       # mshr miss rate for ReadReq accesses
system.cpu.dcache.ReadReq_mshr_miss_rate::total     0.002023                       # mshr miss rate for ReadReq accesses
system.cpu.dcache.ReadReq_avg_mshr_miss_latency::.cpu.data 72958.333333                       # average ReadReq mshr miss latency
system.cpu.dcache.ReadReq_avg_mshr_miss_latency::total 72958.333333                       # average ReadReq mshr miss latency
system.cpu.dcache.ReadReq_avg_mshr_uncacheable_latency::.cpu.data 21720.679012                       # average ReadReq mshr uncacheable latency
system.cpu.dcache.ReadReq_avg_mshr_uncacheable_latency::total 21720.679012                       # average ReadReq mshr uncacheable latency
system.cpu.dcache.WriteReq_hits::.cpu.data        21663                       # number of WriteReq hits
system.cpu.dcache.WriteReq_hits::total          21663                       # number of WriteReq hits
system.cpu.dcache.WriteReq_misses::.cpu.data           76                       # number of WriteReq misses
system.cpu.dcache.WriteReq_misses::total           76                       # number of WriteReq misses
system.cpu.dcache.WriteReq_miss_latency::.cpu.data      6319500                       # number of WriteReq miss cycles
system.cpu.dcache.WriteReq_miss_latency::total      6319500                       # number of WriteReq miss cycles
system.cpu.dcache.WriteReq_accesses::.cpu.data        21739                       # number of WriteReq accesses(hits+misses)
system.cpu.dcache.WriteReq_accesses::total        21739                       # number of WriteReq accesses(hits+misses)
system.cpu.dcache.WriteReq_miss_rate::.cpu.data     0.003496                       # miss rate for WriteReq accesses
system.cpu.dcache.WriteReq_miss_rate::total     0.003496                       # miss rate for WriteReq accesses
system.cpu.dcache.WriteReq_avg_miss_latency::.cpu.data 83151.315789                       # average WriteReq miss latency
system.cpu.dcache.WriteReq_avg_miss_latency::total 83151.315789                       # average WriteReq miss latency
system.cpu.dcache.WriteReq_mshr_hits::.cpu.data           29                       # number of WriteReq MSHR hits
system.cpu.dcache.WriteReq_mshr_hits::total           29                       # number of WriteReq MSHR hits
system.cpu.dcache.WriteReq_mshr_misses::.cpu.data           47                       # number of WriteReq MSHR misses
system.cpu.dcache.WriteReq_mshr_misses::total           47                       # number of WriteReq MSHR misses
system.cpu.dcache.WriteReq_mshr_uncacheable::.cpu.data         1415                       # number of WriteReq MSHR uncacheable
system.cpu.dcache.WriteReq_mshr_uncacheable::total         1415                       # number of WriteReq MSHR uncacheable
system.cpu.dcache.WriteReq_mshr_miss_latency::.cpu.data      3853375                       # number of WriteReq MSHR miss cycles
system.cpu.dcache.WriteReq_mshr_miss_latency::total      3853375                       # number of WriteReq MSHR miss cycles
system.cpu.dcache.WriteReq_mshr_miss_rate::.cpu.data     0.002162                       # mshr miss rate for WriteReq accesses
system.cpu.dcache.WriteReq_mshr_miss_rate::total     0.002162                       # mshr miss rate for WriteReq accesses
system.cpu.dcache.WriteReq_avg_mshr_miss_latency::.cpu.data 81986.702128                       # average WriteReq mshr miss latency
system.cpu.dcache.WriteReq_avg_mshr_miss_latency::total 81986.702128                       # average WriteReq mshr miss latency
system.cpu.dcache.tags.pwrStateResidencyTicks::UNDEFINED  25372765000                       # Cumulative time (in ticks) in various power states
system.cpu.dcache.tags.tagsinuse           291.916911                       # Cycle average of tags in use
system.cpu.dcache.tags.total_refs               60853                       # Total number of references to valid blocks.
system.cpu.dcache.tags.sampled_refs               353                       # Sample count of references to valid blocks.
system.cpu.dcache.tags.avg_refs            172.388102                       # Average number of references to valid blocks.
system.cpu.dcache.tags.warmup_cycle                 0                       # Cycle when the warmup percentage was hit.
system.cpu.dcache.tags.occ_blocks::.cpu.data   291.916911                       # Average occupied blocks per requestor
system.cpu.dcache.tags.occ_percent::.cpu.data     0.570150                       # Average percentage of cache occupancy
system.cpu.dcache.tags.occ_percent::total     0.570150                       # Average percentage of cache occupancy
system.cpu.dcache.tags.occ_task_id_blocks::1024          308                       # Occupied blocks per task id
system.cpu.dcache.tags.age_task_id_blocks_1024::0            3                       # Occupied blocks per task id
system.cpu.dcache.tags.age_task_id_blocks_1024::1            1                       # Occupied blocks per task id
system.cpu.dcache.tags.age_task_id_blocks_1024::3           26                       # Occupied blocks per task id
system.cpu.dcache.tags.age_task_id_blocks_1024::4          278                       # Occupied blocks per task id
system.cpu.dcache.tags.occ_task_id_percent::1024     0.601562                       # Percentage of cache occupancy per task id
system.cpu.dcache.tags.tag_accesses            229407                       # Number of tag accesses
system.cpu.dcache.tags.data_accesses           229407                       # Number of data accesses
system.cpu.itb.walker.pwrStateResidencyTicks::UNDEFINED  25372765000                       # Cumulative time (in ticks) in various power states
system.cpu.itb.stage2_mmu.stage2_tlb.walker.pwrStateResidencyTicks::UNDEFINED  25372765000                       # Cumulative time (in ticks) in various power states

---------- End Simulation Statistics   ----------
