gem5 Simulator System.  http://gem5.org
gem5 is copyrighted software; use the --copyright option for details.

gem5 compiled Nov  5 2021 13:21:15
gem5 started Nov  8 2021 08:45:19
gem5 executing on node4x10a.cs.rochester.edu, pid 21810
command line: /u/sgupta45/gem5-SALAM/build/ARM/gem5.opt --debug-flags=HWACC,CommInterface,LLVMInterface,StreamDma,NoncoherentDma --outdir=BM_ARM_OUT/canny_4_deblur_0_gru_4_harris_4_lstm_0_GLAX_pipeline configs/SALAM/scheduler.py --mem-size=4GB --mem-type=LPDDR3_1600_1x32 --kernel=/u/sgupta45/gem5-SALAM/benchmarks/scheduler/sw/bin/canny_4_deblur_0_gru_4_harris_4_lstm_0_GLAX.elf --disk-image=/u/sgupta45/gem5-SALAM/baremetal/common/fake.iso --machine-type=VExpress_GEM5_V1 --dtb-file=none --bare-metal --cpu-type=ex5_LITTLE --cpu-clock=1.6GHz --accpath=/u/sgupta45/gem5-SALAM/benchmarks --caches

Global frequency set at 1000000000000 ticks per second
Cycle Counts Loaded!
Cycle Counts Loaded!
Cycle Counts Loaded!
Cycle Counts Loaded!
Cycle Counts Loaded!
Cycle Counts Loaded!
Cycle Counts Loaded!
Cycle Counts Loaded!
Cycle Counts Loaded!
Cycle Counts Loaded!
Cycle Counts Loaded!
**** REAL SIMULATION ****
280477042750: system.acctest.elem_matrix0_dma: SRC:0x000000008734d148, DST:0x0000000024000020, LEN:65536
280500182750: system.acctest.elem_matrix0_dma: Transfer completed in 23.14 us
280505798500: system.acctest.elem_matrix0_dma: SRC:0x000000008534cf88, DST:0x0000000024010020, LEN:65536
280528768500: system.acctest.elem_matrix0_dma: Transfer completed in 22.97 us
280545284875: system.acctest.elem_matrix1_dma: SRC:0x0000000087366748, DST:0x0000000024100020, LEN:65536
********************************************************************************
system.acctest.elem_matrix0.compute
   ========= Performance Analysis =============
   Setup Time:                      2.96471seconds
   Simulation Time:                 43.2379seconds
   System Clock:                    1GHz
   Transistor Latency:              1ns
   Runtime:                         16394 cycles
   Runtime:                         16.394 us
   Stalls:                          1 cycles
   Executed Nodes:                  16392 cycles

********************************************************************************
   ========= Performance Analysis =================
   Setup Time:                      2.96471e+09ns
   Simulation Time:                 4.32379e+10ns
   System Clock:                    1GHz
   Transistor Latency:              0ns
   Runtime:                         16394 cycles
   Runtime:                         1.6394e-06 seconds
   Stalls:                          1 cycles
       Load Only:                   0 cycles
       Store Only:                  1 cycles
       Compute Only:                0 cycles
       Compute & Store:             0 cycles
       Load & Store:                0 cycles
       Load & Compute:              0 cycles
       Load & Compute & Store:      0 cycles
   Executed Nodes:                  16392 cycles
       Load Only:                   0 cycles
       Store Only:                  5 cycles
       Compute Only:                1 cycles
       Compute & Store:             32 cycles
       Load & Store:                0 cycles
       Load & Compute:              7 cycles
       Load & Compute & Store:      16347 cycles

   ========= Runtime FU's ========= (Max | Avg) ===
   Counter FU's:                      32 | 0.031233
   Integer Add/Sub FU's:               0 | 0.000000
   Integer Mul/Div FU's:               0 | 0.000000
   Integer Shifter FU's:               0 | 0.000000
   Integer Bitwise FU's:               1 | 0.000061
   Floating Point Float Add/Sub:       1 | 0.999390
   Floating Point Double Add/Sub:      0 | 0.000000
   Floating Point Float Mul/Div:       0 | 0.000000
   Floating Point Double Mul/Div:      0 | 0.000000
   0 Cycle Compare FU's:             101 | 0.031672
   GEP Instruction FU's:              96 | 0.031231
   Type Conversion FU's:               7 | 0.004523

   ========= Static FU's ==========================
   Counter FU's:                    0
   Integer Add/Sub FU's:            0
   Integer Mul/Div FU's:            0
   Integer Shifter FU's:            0
   Integer Bitwise FU's:            0
   Floating Point Float Add/Sub:    0
   Floating Point Double Add/Sub:   0
   Floating Point Float Mul/Div:    0
   Floating Point Double Mul/Div:   0
   0 Cycle Compare FU's:            0
   GEP Instruction FU's:            0
   Type Conversion FU's:            0
   Other:                           0

   ========= Pipeline Register Usage =============
   Total Number of Registers:       5641
   Max Register Usage Per Cycle:    135
   Avg Register Usage Per Cycle:    8.089301
   Avg Register Size (Bytes):       5.980606

   ========= Memory Configuration =================
   Cache Bus Ports:                 0
   Shared Cache Size:               0kB
   Local Bus Ports:                 0
   Private SPM Size:                256kB
   Private Read Ports:              0
   Private Write Ports:             0
   Private Read Bus Width:          64
   Private Write Bus Width:         64
       Memory Reads:                0
       Memory Writes:               0
   ========= Power Analysis ======================
   FU Leakage Power:                0.015866 mW 
   FU Dynamic Power:                0.231200 mW 
   FU Total Power:                  0.247066 mW 

   Registers Leakage Power:          0.003521 mW 
   Registers Dynamic Power:          0.015322 mW 
       Register Reads (Bits):        132616
       Register Writes (Bits):       133658
   Registers Total Power:            0.018843 mW

   SPM Leakage Power:               0.099590 mW
   SPM Read Dynamic Power:          0.965320 mW
   SPM Write Dynamic Power:         0.561696 mW
   SPM Total Power:                 1.626606 mW

   Cache Leakage Power:             0.000000 mW
   Cache Read Dynamic Power:        0.000000 mW
   Cache Write Dynamic Power:       0.000000 mW
   Cache Total Power:               0.000000 mW

   Accelerator Power:               0.265909 mW
   Accelerator Power (SPM):         1.892515 mW
   Accelerator Power (Cache):       0.265909 mW

   ========= Area Analysis =======================
   FU Area:                         2113.963867 um^2 (0.002114 mm^2)
   Register Area:                   286.180725 um^2 (0.000286 mm^2)
   SPM Area:                        1894.672457 um^2 (0.001895 mm^2)
   Cache Area:                      0.000000 um^2 (0.000000 mm^2)

   Accelerator Area:                2400.144531 um^2 (0.002400 mm^2)
   Accelerator Area (SPM):          4294.816988 um^2 (0.004295 mm^2)
   Accelerator Area (Cache):        2400.144531 um^2 (0.002400 mm^2)

   ========= SPM Resizing  =======================
   SPM Optimized Leakage Power:     0.003640 mW
   SPM Opt Area:                    97.220725 um^2

280568494875: system.acctest.elem_matrix1_dma: Transfer completed in 23.21 us
280573950625: system.acctest.elem_matrix1_dma: SRC:0x0000000085b4cfa8, DST:0x0000000024110020, LEN:65536
280597130625: system.acctest.elem_matrix1_dma: Transfer completed in 23.18 us
280613212750: system.acctest.elem_matrix2_dma: SRC:0x000000008737fd48, DST:0x0000000024200020, LEN:65536
********************************************************************************
system.acctest.elem_matrix1.compute
   ========= Performance Analysis =============
   Setup Time:                      5.482469seconds
   Simulation Time:                 53.318870seconds
   System Clock:                    1.000000GHz
   Transistor Latency:              1ns
   Runtime:                         16394 cycles
   Runtime:                         16.394000 us
   Stalls:                          1 cycles
   Executed Nodes:                  16392 cycles

********************************************************************************
   ========= Performance Analysis =================
   Setup Time:                      5482469286.000000ns
   Simulation Time:                 53318870268.000000ns
   System Clock:                    1.000000GHz
   Transistor Latency:              0ns
   Runtime:                         16394 cycles
   Runtime:                         0.000002 seconds
   Stalls:                          1 cycles
       Load Only:                   0 cycles
       Store Only:                  1 cycles
       Compute Only:                0 cycles
       Compute & Store:             0 cycles
       Load & Store:                0 cycles
       Load & Compute:              0 cycles
       Load & Compute & Store:      0 cycles
   Executed Nodes:                  16392 cycles
       Load Only:                   0 cycles
       Store Only:                  5 cycles
       Compute Only:                1 cycles
       Compute & Store:             32 cycles
       Load & Store:                0 cycles
       Load & Compute:              7 cycles
       Load & Compute & Store:      16347 cycles

   ========= Runtime FU's ========= (Max | Avg) ===
   Counter FU's:                      32 | 0.031233
   Integer Add/Sub FU's:               0 | 0.000000
   Integer Mul/Div FU's:               0 | 0.000000
   Integer Shifter FU's:               0 | 0.000000
   Integer Bitwise FU's:               1 | 0.000061
   Floating Point Float Add/Sub:       1 | 0.999390
   Floating Point Double Add/Sub:      0 | 0.000000
   Floating Point Float Mul/Div:       0 | 0.000000
   Floating Point Double Mul/Div:      0 | 0.000000
   0 Cycle Compare FU's:             101 | 0.031672
   GEP Instruction FU's:              96 | 0.031231
   Type Conversion FU's:               7 | 0.004523

   ========= Static FU's ==========================
   Counter FU's:                    0
   Integer Add/Sub FU's:            0
   Integer Mul/Div FU's:            0
   Integer Shifter FU's:            0
   Integer Bitwise FU's:            0
   Floating Point Float Add/Sub:    0
   Floating Point Double Add/Sub:   0
   Floating Point Float Mul/Div:    0
   Floating Point Double Mul/Div:   0
   0 Cycle Compare FU's:            0
   GEP Instruction FU's:            0
   Type Conversion FU's:            0
   Other:                           0

   ========= Pipeline Register Usage =============
   Total Number of Registers:       5641
   Max Register Usage Per Cycle:    135
   Avg Register Usage Per Cycle:    8.089301
   Avg Register Size (Bytes):       5.980606

   ========= Memory Configuration =================
   Cache Bus Ports:                 0
   Shared Cache Size:               0kB
   Local Bus Ports:                 0
   Private SPM Size:                256kB
   Private Read Ports:              0
   Private Write Ports:             0
   Private Read Bus Width:          64
   Private Write Bus Width:         64
       Memory Reads:                0
       Memory Writes:               0
   ========= Power Analysis ======================
   FU Leakage Power:                0.015866 mW 
   FU Dynamic Power:                0.231200 mW 
   FU Total Power:                  0.247066 mW 

   Registers Leakage Power:          0.003521 mW 
   Registers Dynamic Power:          0.015322 mW 
       Register Reads (Bits):        132616
       Register Writes (Bits):       133658
   Registers Total Power:            0.018843 mW

   SPM Leakage Power:               0.099590 mW
   SPM Read Dynamic Power:          0.965320 mW
   SPM Write Dynamic Power:         0.561696 mW
   SPM Total Power:                 1.626606 mW

   Cache Leakage Power:             0.000000 mW
   Cache Read Dynamic Power:        0.000000 mW
   Cache Write Dynamic Power:       0.000000 mW
   Cache Total Power:               0.000000 mW

   Accelerator Power:               0.265909 mW
   Accelerator Power (SPM):         1.892515 mW
   Accelerator Power (Cache):       0.265909 mW

   ========= Area Analysis =======================
   FU Area:                         2113.963867 um^2 (0.002114 mm^2)
   Register Area:                   286.180725 um^2 (0.000286 mm^2)
   SPM Area:                        1894.672457 um^2 (0.001895 mm^2)
   Cache Area:                      0.000000 um^2 (0.000000 mm^2)

   Accelerator Area:                2400.144531 um^2 (0.002400 mm^2)
   Accelerator Area (SPM):          4294.816988 um^2 (0.004295 mm^2)
   Accelerator Area (Cache):        2400.144531 um^2 (0.002400 mm^2)

   ========= SPM Resizing  =======================
   SPM Optimized Leakage Power:     0.003640 mW
   SPM Opt Area:                    97.220725 um^2

280636302750: system.acctest.elem_matrix2_dma: Transfer completed in 23.09 us
280641850625: system.acctest.elem_matrix2_dma: SRC:0x000000008634cfc8, DST:0x0000000024210020, LEN:65536
280665120625: system.acctest.elem_matrix2_dma: Transfer completed in 23.27 us
280681207750: system.acctest.elem_matrix3_dma: SRC:0x0000000087399348, DST:0x0000000024300020, LEN:65536
********************************************************************************
system.acctest.elem_matrix2.compute
   ========= Performance Analysis =============
   Setup Time:                      5.813942seconds
   Simulation Time:                 51.248227seconds
   System Clock:                    1.000000GHz
   Transistor Latency:              1ns
   Runtime:                         16394 cycles
   Runtime:                         16.394000 us
   Stalls:                          1 cycles
   Executed Nodes:                  16392 cycles

********************************************************************************
   ========= Performance Analysis =================
   Setup Time:                      5813942418.000000ns
   Simulation Time:                 51248226900.000000ns
   System Clock:                    1.000000GHz
   Transistor Latency:              0ns
   Runtime:                         16394 cycles
   Runtime:                         0.000002 seconds
   Stalls:                          1 cycles
       Load Only:                   0 cycles
       Store Only:                  1 cycles
       Compute Only:                0 cycles
       Compute & Store:             0 cycles
       Load & Store:                0 cycles
       Load & Compute:              0 cycles
       Load & Compute & Store:      0 cycles
   Executed Nodes:                  16392 cycles
       Load Only:                   0 cycles
       Store Only:                  5 cycles
       Compute Only:                1 cycles
       Compute & Store:             32 cycles
       Load & Store:                0 cycles
       Load & Compute:              7 cycles
       Load & Compute & Store:      16347 cycles

   ========= Runtime FU's ========= (Max | Avg) ===
   Counter FU's:                      32 | 0.031233
   Integer Add/Sub FU's:               0 | 0.000000
   Integer Mul/Div FU's:               0 | 0.000000
   Integer Shifter FU's:               0 | 0.000000
   Integer Bitwise FU's:               1 | 0.000061
   Floating Point Float Add/Sub:       1 | 0.999390
   Floating Point Double Add/Sub:      0 | 0.000000
   Floating Point Float Mul/Div:       0 | 0.000000
   Floating Point Double Mul/Div:      0 | 0.000000
   0 Cycle Compare FU's:             101 | 0.031672
   GEP Instruction FU's:              96 | 0.031231
   Type Conversion FU's:               7 | 0.004523

   ========= Static FU's ==========================
   Counter FU's:                    0
   Integer Add/Sub FU's:            0
   Integer Mul/Div FU's:            0
   Integer Shifter FU's:            0
   Integer Bitwise FU's:            0
   Floating Point Float Add/Sub:    0
   Floating Point Double Add/Sub:   0
   Floating Point Float Mul/Div:    0
   Floating Point Double Mul/Div:   0
   0 Cycle Compare FU's:            0
   GEP Instruction FU's:            0
   Type Conversion FU's:            0
   Other:                           0

   ========= Pipeline Register Usage =============
   Total Number of Registers:       5641
   Max Register Usage Per Cycle:    135
   Avg Register Usage Per Cycle:    8.089301
   Avg Register Size (Bytes):       5.980606

   ========= Memory Configuration =================
   Cache Bus Ports:                 0
   Shared Cache Size:               0kB
   Local Bus Ports:                 0
   Private SPM Size:                256kB
   Private Read Ports:              0
   Private Write Ports:             0
   Private Read Bus Width:          64
   Private Write Bus Width:         64
       Memory Reads:                0
       Memory Writes:               0
   ========= Power Analysis ======================
   FU Leakage Power:                0.015866 mW 
   FU Dynamic Power:                0.231200 mW 
   FU Total Power:                  0.247066 mW 

   Registers Leakage Power:          0.003521 mW 
   Registers Dynamic Power:          0.015322 mW 
       Register Reads (Bits):        132616
       Register Writes (Bits):       133658
   Registers Total Power:            0.018843 mW

   SPM Leakage Power:               0.099590 mW
   SPM Read Dynamic Power:          0.965320 mW
   SPM Write Dynamic Power:         0.561696 mW
   SPM Total Power:                 1.626606 mW

   Cache Leakage Power:             0.000000 mW
   Cache Read Dynamic Power:        0.000000 mW
   Cache Write Dynamic Power:       0.000000 mW
   Cache Total Power:               0.000000 mW

   Accelerator Power:               0.265909 mW
   Accelerator Power (SPM):         1.892515 mW
   Accelerator Power (Cache):       0.265909 mW

   ========= Area Analysis =======================
   FU Area:                         2113.963867 um^2 (0.002114 mm^2)
   Register Area:                   286.180725 um^2 (0.000286 mm^2)
   SPM Area:                        1894.672457 um^2 (0.001895 mm^2)
   Cache Area:                      0.000000 um^2 (0.000000 mm^2)

   Accelerator Area:                2400.144531 um^2 (0.002400 mm^2)
   Accelerator Area (SPM):          4294.816988 um^2 (0.004295 mm^2)
   Accelerator Area (Cache):        2400.144531 um^2 (0.002400 mm^2)

   ========= SPM Resizing  =======================
   SPM Optimized Leakage Power:     0.003640 mW
   SPM Opt Area:                    97.220725 um^2

280704487750: system.acctest.elem_matrix3_dma: Transfer completed in 23.28 us
280709970625: system.acctest.elem_matrix3_dma: SRC:0x0000000086b4cfe8, DST:0x0000000024310020, LEN:65536
280733130625: system.acctest.elem_matrix3_dma: Transfer completed in 23.16 us
280751059875: system.acctest.isp0_dma: SRC:0x00000000850189a0, DST:0x0000000027000020, LEN:16900
********************************************************************************
system.acctest.elem_matrix3.compute
   ========= Performance Analysis =============
   Setup Time:                      5.604156seconds
   Simulation Time:                 53.027002seconds
   System Clock:                    1.000000GHz
   Transistor Latency:              1ns
   Runtime:                         16394 cycles
   Runtime:                         16.394000 us
   Stalls:                          1 cycles
   Executed Nodes:                  16392 cycles

********************************************************************************
   ========= Performance Analysis =================
   Setup Time:                      5604155771.000000ns
   Simulation Time:                 53027002267.000000ns
   System Clock:                    1.000000GHz
   Transistor Latency:              0ns
   Runtime:                         16394 cycles
   Runtime:                         0.000002 seconds
   Stalls:                          1 cycles
       Load Only:                   0 cycles
       Store Only:                  1 cycles
       Compute Only:                0 cycles
       Compute & Store:             0 cycles
       Load & Store:                0 cycles
       Load & Compute:              0 cycles
       Load & Compute & Store:      0 cycles
   Executed Nodes:                  16392 cycles
       Load Only:                   0 cycles
       Store Only:                  5 cycles
       Compute Only:                1 cycles
       Compute & Store:             32 cycles
       Load & Store:                0 cycles
       Load & Compute:              7 cycles
       Load & Compute & Store:      16347 cycles

   ========= Runtime FU's ========= (Max | Avg) ===
   Counter FU's:                      32 | 0.031233
   Integer Add/Sub FU's:               0 | 0.000000
   Integer Mul/Div FU's:               0 | 0.000000
   Integer Shifter FU's:               0 | 0.000000
   Integer Bitwise FU's:               1 | 0.000061
   Floating Point Float Add/Sub:       1 | 0.999390
   Floating Point Double Add/Sub:      0 | 0.000000
   Floating Point Float Mul/Div:       0 | 0.000000
   Floating Point Double Mul/Div:      0 | 0.000000
   0 Cycle Compare FU's:             101 | 0.031672
   GEP Instruction FU's:              96 | 0.031231
   Type Conversion FU's:               7 | 0.004523

   ========= Static FU's ==========================
   Counter FU's:                    0
   Integer Add/Sub FU's:            0
   Integer Mul/Div FU's:            0
   Integer Shifter FU's:            0
   Integer Bitwise FU's:            0
   Floating Point Float Add/Sub:    0
   Floating Point Double Add/Sub:   0
   Floating Point Float Mul/Div:    0
   Floating Point Double Mul/Div:   0
   0 Cycle Compare FU's:            0
   GEP Instruction FU's:            0
   Type Conversion FU's:            0
   Other:                           0

   ========= Pipeline Register Usage =============
   Total Number of Registers:       5641
   Max Register Usage Per Cycle:    135
   Avg Register Usage Per Cycle:    8.089301
   Avg Register Size (Bytes):       5.980606

   ========= Memory Configuration =================
   Cache Bus Ports:                 0
   Shared Cache Size:               0kB
   Local Bus Ports:                 0
   Private SPM Size:                256kB
   Private Read Ports:              0
   Private Write Ports:             0
   Private Read Bus Width:          64
   Private Write Bus Width:         64
       Memory Reads:                0
       Memory Writes:               0
   ========= Power Analysis ======================
   FU Leakage Power:                0.015866 mW 
   FU Dynamic Power:                0.231200 mW 
   FU Total Power:                  0.247066 mW 

   Registers Leakage Power:          0.003521 mW 
   Registers Dynamic Power:          0.015322 mW 
       Register Reads (Bits):        132616
       Register Writes (Bits):       133658
   Registers Total Power:            0.018843 mW

   SPM Leakage Power:               0.099590 mW
   SPM Read Dynamic Power:          0.965320 mW
   SPM Write Dynamic Power:         0.561696 mW
   SPM Total Power:                 1.626606 mW

   Cache Leakage Power:             0.000000 mW
   Cache Read Dynamic Power:        0.000000 mW
   Cache Write Dynamic Power:       0.000000 mW
   Cache Total Power:               0.000000 mW

   Accelerator Power:               0.265909 mW
   Accelerator Power (SPM):         1.892515 mW
   Accelerator Power (Cache):       0.265909 mW

   ========= Area Analysis =======================
   FU Area:                         2113.963867 um^2 (0.002114 mm^2)
   Register Area:                   286.180725 um^2 (0.000286 mm^2)
   SPM Area:                        1894.672457 um^2 (0.001895 mm^2)
   Cache Area:                      0.000000 um^2 (0.000000 mm^2)

   Accelerator Area:                2400.144531 um^2 (0.002400 mm^2)
   Accelerator Area (SPM):          4294.816988 um^2 (0.004295 mm^2)
   Accelerator Area (Cache):        2400.144531 um^2 (0.002400 mm^2)

   ========= SPM Resizing  =======================
   SPM Optimized Leakage Power:     0.003640 mW
   SPM Opt Area:                    97.220725 um^2

280755079875: system.acctest.isp0_dma: Transfer completed in 4.02 us
280771141375: system.acctest.elem_matrix0_dma: SRC:0x0000000024020020, DST:0x000000008535cf8c, LEN:65536
280782991375: system.acctest.elem_matrix0_dma: Transfer completed in 11.85 us
********************************************************************************
system.acctest.isp0.compute
   ========= Performance Analysis =============
   Setup Time:                      0.285230seconds
   Simulation Time:                 244.625678seconds
   System Clock:                    1.000000GHz
   Transistor Latency:              1ns
   Runtime:                         34857 cycles
   Runtime:                         34.857000 us
   Stalls:                          1 cycles
   Executed Nodes:                  34855 cycles

********************************************************************************
   ========= Performance Analysis =================
   Setup Time:                      285230007.000000ns
   Simulation Time:                 244625678254.000000ns
   System Clock:                    1.000000GHz
   Transistor Latency:              0ns
   Runtime:                         34857 cycles
   Runtime:                         0.000003 seconds
   Stalls:                          1 cycles
       Load Only:                   0 cycles
       Store Only:                  1 cycles
       Compute Only:                0 cycles
       Compute & Store:             0 cycles
       Load & Store:                0 cycles
       Load & Compute:              0 cycles
       Load & Compute & Store:      0 cycles
   Executed Nodes:                  34855 cycles
       Load Only:                   0 cycles
       Store Only:                  1 cycles
       Compute Only:                3716 cycles
       Compute & Store:             18631 cycles
       Load & Store:                0 cycles
       Load & Compute:              3340 cycles
       Load & Compute & Store:      9167 cycles

   ========= Runtime FU's ========= (Max | Avg) ===
   Counter FU's:                      10 | 0.118160
   Integer Add/Sub FU's:              74 | 0.084377
   Integer Mul/Div FU's:              11 | 0.043920
   Integer Shifter FU's:               7 | 0.335903
   Integer Bitwise FU's:               4 | 0.059486
   Floating Point Float Add/Sub:      49 | 0.119993
   Floating Point Double Add/Sub:      0 | 0.000000
   Floating Point Float Mul/Div:      73 | 0.645039
   Floating Point Double Mul/Div:      0 | 0.000000
   0 Cycle Compare FU's:              91 | 0.606525
   GEP Instruction FU's:              33 | 0.117509
   Type Conversion FU's:             108 | 0.401632

   ========= Static FU's ==========================
   Counter FU's:                    0
   Integer Add/Sub FU's:            0
   Integer Mul/Div FU's:            0
   Integer Shifter FU's:            0
   Integer Bitwise FU's:            0
   Floating Point Float Add/Sub:    0
   Floating Point Double Add/Sub:   0
   Floating Point Float Mul/Div:    0
   Floating Point Double Mul/Div:   0
   0 Cycle Compare FU's:            0
   GEP Instruction FU's:            0
   Type Conversion FU's:            0
   Other:                           0

   ========= Pipeline Register Usage =============
   Total Number of Registers:       1620
   Max Register Usage Per Cycle:    148
   Avg Register Usage Per Cycle:    58.786843
   Avg Register Size (Bytes):       5.073357

   ========= Memory Configuration =================
   Cache Bus Ports:                 0
   Shared Cache Size:               0kB
   Local Bus Ports:                 0
   Private SPM Size:                112kB
   Private Read Ports:              0
   Private Write Ports:             0
   Private Read Bus Width:          64
   Private Write Bus Width:         64
       Memory Reads:                0
       Memory Writes:               0
   ========= Power Analysis ======================
   FU Leakage Power:                1.512678 mW 
   FU Dynamic Power:                9.402902 mW 
   FU Total Power:                  10.915580 mW 

   Registers Leakage Power:          0.021654 mW 
   Registers Dynamic Power:          3.083750 mW 
       Register Reads (Bits):        2049133
       Register Writes (Bits):       2049168
   Registers Total Power:            3.105404 mW

   SPM Leakage Power:               0.054673 mW
   SPM Read Dynamic Power:          7.521408 mW
   SPM Write Dynamic Power:         3.922488 mW
   SPM Total Power:                 11.498569 mW

   Cache Leakage Power:             0.000000 mW
   Cache Read Dynamic Power:        0.000000 mW
   Cache Write Dynamic Power:       0.000000 mW
   Cache Total Power:               0.000000 mW

   Accelerator Power:               14.020984 mW
   Accelerator Power (SPM):         25.519553 mW
   Accelerator Power (Cache):       14.020984 mW

   ========= Area Analysis =======================
   FU Area:                         159031.812500 um^2 (0.159032 mm^2)
   Register Area:                   1760.064941 um^2 (0.001760 mm^2)
   SPM Area:                        1537.371337 um^2 (0.001537 mm^2)
   Cache Area:                      0.000000 um^2 (0.000000 mm^2)

   Accelerator Area:                160791.875000 um^2 (0.160792 mm^2)
   Accelerator Area (SPM):          162329.246337 um^2 (0.162329 mm^2)
   Accelerator Area (Cache):        160791.875000 um^2 (0.160792 mm^2)

   ========= SPM Resizing  =======================
   SPM Optimized Leakage Power:     0.005165 mW
   SPM Opt Area:                    291.630286 um^2

280797787750: system.acctest.elem_matrix0_dma: SRC:0x000000008535cf8c, DST:0x0000000024000020, LEN:65536
280820927750: system.acctest.elem_matrix0_dma: Transfer completed in 23.14 us
280826470625: system.acctest.elem_matrix0_dma: SRC:0x000000008530cf88, DST:0x0000000024010020, LEN:65536
280849730625: system.acctest.elem_matrix0_dma: Transfer completed in 23.26 us
********************************************************************************
system.acctest.elem_matrix0.compute
   ========= Performance Analysis =============
   Setup Time:                      6.545692seconds
   Simulation Time:                 50.839183seconds
   System Clock:                    1.000000GHz
   Transistor Latency:              1ns
   Runtime:                         16392 cycles
   Runtime:                         16.392000 us
   Stalls:                          0 cycles
   Executed Nodes:                  16391 cycles

********************************************************************************
   ========= Performance Analysis =================
   Setup Time:                      6545692390.000000ns
   Simulation Time:                 50839183135.000000ns
   System Clock:                    1.000000GHz
   Transistor Latency:              0ns
   Runtime:                         16392 cycles
   Runtime:                         0.000002 seconds
   Stalls:                          0 cycles
       Load Only:                   0 cycles
       Store Only:                  0 cycles
       Compute Only:                0 cycles
       Compute & Store:             0 cycles
       Load & Store:                0 cycles
       Load & Compute:              0 cycles
       Load & Compute & Store:      0 cycles
   Executed Nodes:                  16391 cycles
       Load Only:                   0 cycles
       Store Only:                  4 cycles
       Compute Only:                1 cycles
       Compute & Store:             32 cycles
       Load & Store:                0 cycles
       Load & Compute:              6 cycles
       Load & Compute & Store:      16348 cycles

   ========= Runtime FU's ========= (Max | Avg) ===
   Counter FU's:                      32 | 0.031237
   Integer Add/Sub FU's:               0 | 0.000000
   Integer Mul/Div FU's:               0 | 0.000000
   Integer Shifter FU's:               0 | 0.000000
   Integer Bitwise FU's:               1 | 0.000061
   Floating Point Float Add/Sub:       0 | 0.000000
   Floating Point Double Add/Sub:      0 | 0.000000
   Floating Point Float Mul/Div:       1 | 0.999512
   Floating Point Double Mul/Div:      0 | 0.000000
   0 Cycle Compare FU's:             101 | 0.031657
   GEP Instruction FU's:              96 | 0.031235
   Type Conversion FU's:               7 | 0.004523

   ========= Static FU's ==========================
   Counter FU's:                    0
   Integer Add/Sub FU's:            0
   Integer Mul/Div FU's:            0
   Integer Shifter FU's:            0
   Integer Bitwise FU's:            0
   Floating Point Float Add/Sub:    0
   Floating Point Double Add/Sub:   0
   Floating Point Float Mul/Div:    0
   Floating Point Double Mul/Div:   0
   0 Cycle Compare FU's:            0
   GEP Instruction FU's:            0
   Type Conversion FU's:            0
   Other:                           0

   ========= Pipeline Register Usage =============
   Total Number of Registers:       5641
   Max Register Usage Per Cycle:    135
   Avg Register Usage Per Cycle:    8.090288
   Avg Register Size (Bytes):       5.980606

   ========= Memory Configuration =================
   Cache Bus Ports:                 0
   Shared Cache Size:               0kB
   Local Bus Ports:                 0
   Private SPM Size:                256kB
   Private Read Ports:              0
   Private Write Ports:             0
   Private Read Bus Width:          64
   Private Write Bus Width:         64
       Memory Reads:                0
       Memory Writes:               0
   ========= Power Analysis ======================
   FU Leakage Power:                0.045377 mW 
   FU Dynamic Power:                0.293182 mW 
   FU Total Power:                  0.338559 mW 

   Registers Leakage Power:          0.003521 mW 
   Registers Dynamic Power:          0.015320 mW 
       Register Reads (Bits):        132616
       Register Writes (Bits):       133658
   Registers Total Power:            0.018841 mW

   SPM Leakage Power:               0.099590 mW
   SPM Read Dynamic Power:          1.510371 mW
   SPM Write Dynamic Power:         1.004807 mW
   SPM Total Power:                 2.614768 mW

   Cache Leakage Power:             0.000000 mW
   Cache Read Dynamic Power:        0.000000 mW
   Cache Write Dynamic Power:       0.000000 mW
   Cache Total Power:               0.000000 mW

   Accelerator Power:               0.357400 mW
   Accelerator Power (SPM):         2.972168 mW
   Accelerator Power (Cache):       0.357400 mW

   ========= Area Analysis =======================
   FU Area:                         5472.068359 um^2 (0.005472 mm^2)
   Register Area:                   286.180725 um^2 (0.000286 mm^2)
   SPM Area:                        1894.672457 um^2 (0.001895 mm^2)
   Cache Area:                      0.000000 um^2 (0.000000 mm^2)

   Accelerator Area:                5758.249023 um^2 (0.005758 mm^2)
   Accelerator Area (SPM):          7652.921481 um^2 (0.007653 mm^2)
   Accelerator Area (Cache):        5758.249023 um^2 (0.005758 mm^2)

   ========= SPM Resizing  =======================
   SPM Optimized Leakage Power:     0.003640 mW
   SPM Opt Area:                    97.220725 um^2

280872801375: system.acctest.elem_matrix1_dma: SRC:0x0000000024120020, DST:0x0000000085b5cfac, LEN:65536
280884791375: system.acctest.elem_matrix1_dma: Transfer completed in 11.99 us
280899902750: system.acctest.elem_matrix1_dma: SRC:0x0000000085b5cfac, DST:0x0000000024100020, LEN:65536
280923102750: system.acctest.elem_matrix1_dma: Transfer completed in 23.2 us
280928587125: system.acctest.elem_matrix1_dma: SRC:0x000000008530cf88, DST:0x0000000024110020, LEN:65536
280951907125: system.acctest.elem_matrix1_dma: Transfer completed in 23.32 us
280973161375: system.acctest.elem_matrix0_dma: SRC:0x0000000024020020, DST:0x00000000853acf8c, LEN:65536
********************************************************************************
system.acctest.elem_matrix1.compute
   ========= Performance Analysis =============
   Setup Time:                      5.911639seconds
   Simulation Time:                 49.099895seconds
   System Clock:                    1.000000GHz
   Transistor Latency:              1ns
   Runtime:                         16392 cycles
   Runtime:                         16.392000 us
   Stalls:                          0 cycles
   Executed Nodes:                  16391 cycles

********************************************************************************
   ========= Performance Analysis =================
   Setup Time:                      5911638812.000000ns
   Simulation Time:                 49099895036.000000ns
   System Clock:                    1.000000GHz
   Transistor Latency:              0ns
   Runtime:                         16392 cycles
   Runtime:                         0.000002 seconds
   Stalls:                          0 cycles
       Load Only:                   0 cycles
       Store Only:                  0 cycles
       Compute Only:                0 cycles
       Compute & Store:             0 cycles
       Load & Store:                0 cycles
       Load & Compute:              0 cycles
       Load & Compute & Store:      0 cycles
   Executed Nodes:                  16391 cycles
       Load Only:                   0 cycles
       Store Only:                  4 cycles
       Compute Only:                1 cycles
       Compute & Store:             32 cycles
       Load & Store:                0 cycles
       Load & Compute:              6 cycles
       Load & Compute & Store:      16348 cycles

   ========= Runtime FU's ========= (Max | Avg) ===
   Counter FU's:                      32 | 0.031237
   Integer Add/Sub FU's:               0 | 0.000000
   Integer Mul/Div FU's:               0 | 0.000000
   Integer Shifter FU's:               0 | 0.000000
   Integer Bitwise FU's:               1 | 0.000061
   Floating Point Float Add/Sub:       0 | 0.000000
   Floating Point Double Add/Sub:      0 | 0.000000
   Floating Point Float Mul/Div:       1 | 0.999512
   Floating Point Double Mul/Div:      0 | 0.000000
   0 Cycle Compare FU's:             101 | 0.031657
   GEP Instruction FU's:              96 | 0.031235
   Type Conversion FU's:               7 | 0.004523

   ========= Static FU's ==========================
   Counter FU's:                    0
   Integer Add/Sub FU's:            0
   Integer Mul/Div FU's:            0
   Integer Shifter FU's:            0
   Integer Bitwise FU's:            0
   Floating Point Float Add/Sub:    0
   Floating Point Double Add/Sub:   0
   Floating Point Float Mul/Div:    0
   Floating Point Double Mul/Div:   0
   0 Cycle Compare FU's:            0
   GEP Instruction FU's:            0
   Type Conversion FU's:            0
   Other:                           0

   ========= Pipeline Register Usage =============
   Total Number of Registers:       5641
   Max Register Usage Per Cycle:    135
   Avg Register Usage Per Cycle:    8.090288
   Avg Register Size (Bytes):       5.980606

   ========= Memory Configuration =================
   Cache Bus Ports:                 0
   Shared Cache Size:               0kB
   Local Bus Ports:                 0
   Private SPM Size:                256kB
   Private Read Ports:              0
   Private Write Ports:             0
   Private Read Bus Width:          64
   Private Write Bus Width:         64
       Memory Reads:                0
       Memory Writes:               0
   ========= Power Analysis ======================
   FU Leakage Power:                0.045377 mW 
   FU Dynamic Power:                0.293182 mW 
   FU Total Power:                  0.338559 mW 

   Registers Leakage Power:          0.003521 mW 
   Registers Dynamic Power:          0.015320 mW 
       Register Reads (Bits):        132616
       Register Writes (Bits):       133658
   Registers Total Power:            0.018841 mW

   SPM Leakage Power:               0.099590 mW
   SPM Read Dynamic Power:          1.510371 mW
   SPM Write Dynamic Power:         1.004807 mW
   SPM Total Power:                 2.614768 mW

   Cache Leakage Power:             0.000000 mW
   Cache Read Dynamic Power:        0.000000 mW
   Cache Write Dynamic Power:       0.000000 mW
   Cache Total Power:               0.000000 mW

   Accelerator Power:               0.357400 mW
   Accelerator Power (SPM):         2.972168 mW
   Accelerator Power (Cache):       0.357400 mW

   ========= Area Analysis =======================
   FU Area:                         5472.068359 um^2 (0.005472 mm^2)
   Register Area:                   286.180725 um^2 (0.000286 mm^2)
   SPM Area:                        1894.672457 um^2 (0.001895 mm^2)
   Cache Area:                      0.000000 um^2 (0.000000 mm^2)

   Accelerator Area:                5758.249023 um^2 (0.005758 mm^2)
   Accelerator Area (SPM):          7652.921481 um^2 (0.007653 mm^2)
   Accelerator Area (Cache):        5758.249023 um^2 (0.005758 mm^2)

   ========= SPM Resizing  =======================
   SPM Optimized Leakage Power:     0.003640 mW
   SPM Opt Area:                    97.220725 um^2

280985021375: system.acctest.elem_matrix0_dma: Transfer completed in 11.86 us
280999424875: system.acctest.elem_matrix0_dma: SRC:0x00000000853acf8c, DST:0x0000000024000020, LEN:65536
281022534875: system.acctest.elem_matrix0_dma: Transfer completed in 23.11 us
281028020625: system.acctest.elem_matrix0_dma: SRC:0x000000008531cf88, DST:0x0000000024010020, LEN:65536
281051200625: system.acctest.elem_matrix0_dma: Transfer completed in 23.18 us
281073021375: system.acctest.elem_matrix1_dma: SRC:0x0000000024120020, DST:0x0000000085bacfac, LEN:65536
********************************************************************************
system.acctest.elem_matrix0.compute
   ========= Performance Analysis =============
   Setup Time:                      6.014368seconds
   Simulation Time:                 50.008923seconds
   System Clock:                    1.000000GHz
   Transistor Latency:              1ns
   Runtime:                         16394 cycles
   Runtime:                         16.394000 us
   Stalls:                          1 cycles
   Executed Nodes:                  16392 cycles

********************************************************************************
   ========= Performance Analysis =================
   Setup Time:                      6014367545.000000ns
   Simulation Time:                 50008922891.000000ns
   System Clock:                    1.000000GHz
   Transistor Latency:              0ns
   Runtime:                         16394 cycles
   Runtime:                         0.000002 seconds
   Stalls:                          1 cycles
       Load Only:                   0 cycles
       Store Only:                  1 cycles
       Compute Only:                0 cycles
       Compute & Store:             0 cycles
       Load & Store:                0 cycles
       Load & Compute:              0 cycles
       Load & Compute & Store:      0 cycles
   Executed Nodes:                  16392 cycles
       Load Only:                   0 cycles
       Store Only:                  5 cycles
       Compute Only:                1 cycles
       Compute & Store:             32 cycles
       Load & Store:                0 cycles
       Load & Compute:              7 cycles
       Load & Compute & Store:      16347 cycles

   ========= Runtime FU's ========= (Max | Avg) ===
   Counter FU's:                      32 | 0.031233
   Integer Add/Sub FU's:               0 | 0.000000
   Integer Mul/Div FU's:               0 | 0.000000
   Integer Shifter FU's:               0 | 0.000000
   Integer Bitwise FU's:               1 | 0.000061
   Floating Point Float Add/Sub:       1 | 0.999390
   Floating Point Double Add/Sub:      0 | 0.000000
   Floating Point Float Mul/Div:       0 | 0.000000
   Floating Point Double Mul/Div:      0 | 0.000000
   0 Cycle Compare FU's:             101 | 0.031672
   GEP Instruction FU's:              96 | 0.031231
   Type Conversion FU's:               7 | 0.004523

   ========= Static FU's ==========================
   Counter FU's:                    0
   Integer Add/Sub FU's:            0
   Integer Mul/Div FU's:            0
   Integer Shifter FU's:            0
   Integer Bitwise FU's:            0
   Floating Point Float Add/Sub:    0
   Floating Point Double Add/Sub:   0
   Floating Point Float Mul/Div:    0
   Floating Point Double Mul/Div:   0
   0 Cycle Compare FU's:            0
   GEP Instruction FU's:            0
   Type Conversion FU's:            0
   Other:                           0

   ========= Pipeline Register Usage =============
   Total Number of Registers:       5641
   Max Register Usage Per Cycle:    135
   Avg Register Usage Per Cycle:    8.089301
   Avg Register Size (Bytes):       5.980606

   ========= Memory Configuration =================
   Cache Bus Ports:                 0
   Shared Cache Size:               0kB
   Local Bus Ports:                 0
   Private SPM Size:                256kB
   Private Read Ports:              0
   Private Write Ports:             0
   Private Read Bus Width:          64
   Private Write Bus Width:         64
       Memory Reads:                0
       Memory Writes:               0
   ========= Power Analysis ======================
   FU Leakage Power:                0.015866 mW 
   FU Dynamic Power:                0.231200 mW 
   FU Total Power:                  0.247066 mW 

   Registers Leakage Power:          0.003521 mW 
   Registers Dynamic Power:          0.015322 mW 
       Register Reads (Bits):        132616
       Register Writes (Bits):       133658
   Registers Total Power:            0.018843 mW

   SPM Leakage Power:               0.099590 mW
   SPM Read Dynamic Power:          2.004331 mW
   SPM Write Dynamic Power:         1.339804 mW
   SPM Total Power:                 3.443725 mW

   Cache Leakage Power:             0.000000 mW
   Cache Read Dynamic Power:        0.000000 mW
   Cache Write Dynamic Power:       0.000000 mW
   Cache Total Power:               0.000000 mW

   Accelerator Power:               0.265909 mW
   Accelerator Power (SPM):         3.709634 mW
   Accelerator Power (Cache):       0.265909 mW

   ========= Area Analysis =======================
   FU Area:                         2113.963867 um^2 (0.002114 mm^2)
   Register Area:                   286.180725 um^2 (0.000286 mm^2)
   SPM Area:                        1894.672457 um^2 (0.001895 mm^2)
   Cache Area:                      0.000000 um^2 (0.000000 mm^2)

   Accelerator Area:                2400.144531 um^2 (0.002400 mm^2)
   Accelerator Area (SPM):          4294.816988 um^2 (0.004295 mm^2)
   Accelerator Area (Cache):        2400.144531 um^2 (0.002400 mm^2)

   ========= SPM Resizing  =======================
   SPM Optimized Leakage Power:     0.003640 mW
   SPM Opt Area:                    97.220725 um^2

281084861375: system.acctest.elem_matrix1_dma: Transfer completed in 11.84 us
281099574875: system.acctest.elem_matrix1_dma: SRC:0x0000000085bacfac, DST:0x0000000024100020, LEN:65536
281122674875: system.acctest.elem_matrix1_dma: Transfer completed in 23.1 us
281128170625: system.acctest.elem_matrix1_dma: SRC:0x000000008531cf88, DST:0x0000000024110020, LEN:65536
281151460625: system.acctest.elem_matrix1_dma: Transfer completed in 23.29 us
281172241375: system.acctest.elem_matrix0_dma: SRC:0x0000000024020020, DST:0x00000000853bcf8c, LEN:65536
********************************************************************************
system.acctest.elem_matrix1.compute
   ========= Performance Analysis =============
   Setup Time:                      5.829253seconds
   Simulation Time:                 49.893908seconds
   System Clock:                    1.000000GHz
   Transistor Latency:              1ns
   Runtime:                         16394 cycles
   Runtime:                         16.394000 us
   Stalls:                          1 cycles
   Executed Nodes:                  16392 cycles

********************************************************************************
   ========= Performance Analysis =================
   Setup Time:                      5829252634.000000ns
   Simulation Time:                 49893907917.000000ns
   System Clock:                    1.000000GHz
   Transistor Latency:              0ns
   Runtime:                         16394 cycles
   Runtime:                         0.000002 seconds
   Stalls:                          1 cycles
       Load Only:                   0 cycles
       Store Only:                  1 cycles
       Compute Only:                0 cycles
       Compute & Store:             0 cycles
       Load & Store:                0 cycles
       Load & Compute:              0 cycles
       Load & Compute & Store:      0 cycles
   Executed Nodes:                  16392 cycles
       Load Only:                   0 cycles
       Store Only:                  5 cycles
       Compute Only:                1 cycles
       Compute & Store:             32 cycles
       Load & Store:                0 cycles
       Load & Compute:              7 cycles
       Load & Compute & Store:      16347 cycles

   ========= Runtime FU's ========= (Max | Avg) ===
   Counter FU's:                      32 | 0.031233
   Integer Add/Sub FU's:               0 | 0.000000
   Integer Mul/Div FU's:               0 | 0.000000
   Integer Shifter FU's:               0 | 0.000000
   Integer Bitwise FU's:               1 | 0.000061
   Floating Point Float Add/Sub:       1 | 0.999390
   Floating Point Double Add/Sub:      0 | 0.000000
   Floating Point Float Mul/Div:       0 | 0.000000
   Floating Point Double Mul/Div:      0 | 0.000000
   0 Cycle Compare FU's:             101 | 0.031672
   GEP Instruction FU's:              96 | 0.031231
   Type Conversion FU's:               7 | 0.004523

   ========= Static FU's ==========================
   Counter FU's:                    0
   Integer Add/Sub FU's:            0
   Integer Mul/Div FU's:            0
   Integer Shifter FU's:            0
   Integer Bitwise FU's:            0
   Floating Point Float Add/Sub:    0
   Floating Point Double Add/Sub:   0
   Floating Point Float Mul/Div:    0
   Floating Point Double Mul/Div:   0
   0 Cycle Compare FU's:            0
   GEP Instruction FU's:            0
   Type Conversion FU's:            0
   Other:                           0

   ========= Pipeline Register Usage =============
   Total Number of Registers:       5641
   Max Register Usage Per Cycle:    135
   Avg Register Usage Per Cycle:    8.089301
   Avg Register Size (Bytes):       5.980606

   ========= Memory Configuration =================
   Cache Bus Ports:                 0
   Shared Cache Size:               0kB
   Local Bus Ports:                 0
   Private SPM Size:                256kB
   Private Read Ports:              0
   Private Write Ports:             0
   Private Read Bus Width:          64
   Private Write Bus Width:         64
       Memory Reads:                0
       Memory Writes:               0
   ========= Power Analysis ======================
   FU Leakage Power:                0.015866 mW 
   FU Dynamic Power:                0.231200 mW 
   FU Total Power:                  0.247066 mW 

   Registers Leakage Power:          0.003521 mW 
   Registers Dynamic Power:          0.015322 mW 
       Register Reads (Bits):        132616
       Register Writes (Bits):       133658
   Registers Total Power:            0.018843 mW

   SPM Leakage Power:               0.099590 mW
   SPM Read Dynamic Power:          2.004331 mW
   SPM Write Dynamic Power:         1.339804 mW
   SPM Total Power:                 3.443725 mW

   Cache Leakage Power:             0.000000 mW
   Cache Read Dynamic Power:        0.000000 mW
   Cache Write Dynamic Power:       0.000000 mW
   Cache Total Power:               0.000000 mW

   Accelerator Power:               0.265909 mW
   Accelerator Power (SPM):         3.709634 mW
   Accelerator Power (Cache):       0.265909 mW

   ========= Area Analysis =======================
   FU Area:                         2113.963867 um^2 (0.002114 mm^2)
   Register Area:                   286.180725 um^2 (0.000286 mm^2)
   SPM Area:                        1894.672457 um^2 (0.001895 mm^2)
   Cache Area:                      0.000000 um^2 (0.000000 mm^2)

   Accelerator Area:                2400.144531 um^2 (0.002400 mm^2)
   Accelerator Area (SPM):          4294.816988 um^2 (0.004295 mm^2)
   Accelerator Area (Cache):        2400.144531 um^2 (0.002400 mm^2)

   ========= SPM Resizing  =======================
   SPM Optimized Leakage Power:     0.003640 mW
   SPM Opt Area:                    97.220725 um^2

281184251375: system.acctest.elem_matrix0_dma: Transfer completed in 12.01 us
281198709875: system.acctest.elem_matrix0_dma: SRC:0x00000000853bcf8c, DST:0x0000000024000020, LEN:65536
281221799875: system.acctest.elem_matrix0_dma: Transfer completed in 23.09 us
********************************************************************************
system.acctest.elem_matrix0.compute
   ========= Performance Analysis =============
   Setup Time:                      5.980224seconds
   Simulation Time:                 52.536635seconds
   System Clock:                    1.000000GHz
   Transistor Latency:              1ns
   Runtime:                         12316 cycles
   Runtime:                         12.316000 us
   Stalls:                          4072 cycles
   Executed Nodes:                  8243 cycles

********************************************************************************
   ========= Performance Analysis =================
   Setup Time:                      5980224010.000000ns
   Simulation Time:                 52536634946.000000ns
   System Clock:                    1.000000GHz
   Transistor Latency:              0ns
   Runtime:                         12316 cycles
   Runtime:                         0.000001 seconds
   Stalls:                          4072 cycles
       Load Only:                   0 cycles
       Store Only:                  4072 cycles
       Compute Only:                0 cycles
       Compute & Store:             0 cycles
       Load & Store:                0 cycles
       Load & Compute:              0 cycles
       Load & Compute & Store:      0 cycles
   Executed Nodes:                  8243 cycles
       Load Only:                   0 cycles
       Store Only:                  16 cycles
       Compute Only:                1 cycles
       Compute & Store:             48 cycles
       Load & Store:                0 cycles
       Load & Compute:              50 cycles
       Load & Compute & Store:      8128 cycles

   ========= Runtime FU's ========= (Max | Avg) ===
   Counter FU's:                      32 | 0.041574
   Integer Add/Sub FU's:               0 | 0.000000
   Integer Mul/Div FU's:               0 | 0.000000
   Integer Shifter FU's:               0 | 0.000000
   Integer Bitwise FU's:               1 | 0.000081
   Floating Point Float Add/Sub:      66 | 0.191801
   Floating Point Double Add/Sub:      0 | 0.000000
   Floating Point Float Mul/Div:      34 | 0.039279
   Floating Point Double Mul/Div:      0 | 0.000000
   0 Cycle Compare FU's:              15 | 0.016764
   GEP Instruction FU's:              64 | 0.041572
   Type Conversion FU's:              55 | 0.097954

   ========= Static FU's ==========================
   Counter FU's:                    0
   Integer Add/Sub FU's:            0
   Integer Mul/Div FU's:            0
   Integer Shifter FU's:            0
   Integer Bitwise FU's:            0
   Floating Point Float Add/Sub:    0
   Floating Point Double Add/Sub:   0
   Floating Point Float Mul/Div:    0
   Floating Point Double Mul/Div:   0
   0 Cycle Compare FU's:            0
   GEP Instruction FU's:            0
   Type Conversion FU's:            0
   Other:                           0

   ========= Pipeline Register Usage =============
   Total Number of Registers:       5641
   Max Register Usage Per Cycle:    115
   Avg Register Usage Per Cycle:    18.708022
   Avg Register Size (Bytes):       5.993295

   ========= Memory Configuration =================
   Cache Bus Ports:                 0
   Shared Cache Size:               0kB
   Local Bus Ports:                 0
   Private SPM Size:                256kB
   Private Read Ports:              0
   Private Write Ports:             0
   Private Read Bus Width:          64
   Private Write Bus Width:         64
       Memory Reads:                0
       Memory Writes:               0
   ========= Power Analysis ======================
   FU Leakage Power:                1.052184 mW 
   FU Dynamic Power:                1.390106 mW 
   FU Total Power:                  2.442290 mW 

   Registers Leakage Power:          0.007939 mW 
   Registers Dynamic Power:          0.045067 mW 
       Register Reads (Bits):        230408
       Register Writes (Bits):       231961
   Registers Total Power:            0.053006 mW

   SPM Leakage Power:               0.099590 mW
   SPM Read Dynamic Power:          2.167863 mW
   SPM Write Dynamic Power:         1.590245 mW
   SPM Total Power:                 3.857697 mW

   Cache Leakage Power:             0.000000 mW
   Cache Read Dynamic Power:        0.000000 mW
   Cache Write Dynamic Power:       0.000000 mW
   Cache Total Power:               0.000000 mW

   Accelerator Power:               2.495296 mW
   Accelerator Power (SPM):         6.352993 mW
   Accelerator Power (Cache):       2.495296 mW

   ========= Area Analysis =======================
   FU Area:                         141669.281250 um^2 (0.141669 mm^2)
   Register Area:                   645.272827 um^2 (0.000645 mm^2)
   SPM Area:                        1894.672457 um^2 (0.001895 mm^2)
   Cache Area:                      0.000000 um^2 (0.000000 mm^2)

   Accelerator Area:                142314.546875 um^2 (0.142315 mm^2)
   Accelerator Area (SPM):          144209.219332 um^2 (0.144209 mm^2)
   Accelerator Area (Cache):        142314.546875 um^2 (0.142315 mm^2)

   ========= SPM Resizing  =======================
   SPM Optimized Leakage Power:     0.003117 mW
   SPM Opt Area:                    91.617373 um^2

281242771375: system.acctest.elem_matrix1_dma: SRC:0x0000000024120020, DST:0x0000000085bbcfac, LEN:65536
281254611375: system.acctest.elem_matrix1_dma: Transfer completed in 11.84 us
281269007750: system.acctest.elem_matrix1_dma: SRC:0x0000000085bbcfac, DST:0x0000000024100020, LEN:65536
281292197750: system.acctest.elem_matrix1_dma: Transfer completed in 23.19 us
********************************************************************************
system.acctest.elem_matrix1.compute
   ========= Performance Analysis =============
   Setup Time:                      6.001744seconds
   Simulation Time:                 57.972388seconds
   System Clock:                    1.000000GHz
   Transistor Latency:              1ns
   Runtime:                         12316 cycles
   Runtime:                         12.316000 us
   Stalls:                          4072 cycles
   Executed Nodes:                  8243 cycles

********************************************************************************
   ========= Performance Analysis =================
   Setup Time:                      6001743590.000000ns
   Simulation Time:                 57972388271.000000ns
   System Clock:                    1.000000GHz
   Transistor Latency:              0ns
   Runtime:                         12316 cycles
   Runtime:                         0.000001 seconds
   Stalls:                          4072 cycles
       Load Only:                   0 cycles
       Store Only:                  4072 cycles
       Compute Only:                0 cycles
       Compute & Store:             0 cycles
       Load & Store:                0 cycles
       Load & Compute:              0 cycles
       Load & Compute & Store:      0 cycles
   Executed Nodes:                  8243 cycles
       Load Only:                   0 cycles
       Store Only:                  16 cycles
       Compute Only:                1 cycles
       Compute & Store:             48 cycles
       Load & Store:                0 cycles
       Load & Compute:              50 cycles
       Load & Compute & Store:      8128 cycles

   ========= Runtime FU's ========= (Max | Avg) ===
   Counter FU's:                      32 | 0.041574
   Integer Add/Sub FU's:               0 | 0.000000
   Integer Mul/Div FU's:               0 | 0.000000
   Integer Shifter FU's:               0 | 0.000000
   Integer Bitwise FU's:               1 | 0.000081
   Floating Point Float Add/Sub:      66 | 0.191801
   Floating Point Double Add/Sub:      0 | 0.000000
   Floating Point Float Mul/Div:      34 | 0.039279
   Floating Point Double Mul/Div:      0 | 0.000000
   0 Cycle Compare FU's:              15 | 0.016764
   GEP Instruction FU's:              64 | 0.041572
   Type Conversion FU's:              55 | 0.097954

   ========= Static FU's ==========================
   Counter FU's:                    0
   Integer Add/Sub FU's:            0
   Integer Mul/Div FU's:            0
   Integer Shifter FU's:            0
   Integer Bitwise FU's:            0
   Floating Point Float Add/Sub:    0
   Floating Point Double Add/Sub:   0
   Floating Point Float Mul/Div:    0
   Floating Point Double Mul/Div:   0
   0 Cycle Compare FU's:            0
   GEP Instruction FU's:            0
   Type Conversion FU's:            0
   Other:                           0

   ========= Pipeline Register Usage =============
   Total Number of Registers:       5641
   Max Register Usage Per Cycle:    115
   Avg Register Usage Per Cycle:    18.708022
   Avg Register Size (Bytes):       5.993295

   ========= Memory Configuration =================
   Cache Bus Ports:                 0
   Shared Cache Size:               0kB
   Local Bus Ports:                 0
   Private SPM Size:                256kB
   Private Read Ports:              0
   Private Write Ports:             0
   Private Read Bus Width:          64
   Private Write Bus Width:         64
       Memory Reads:                0
       Memory Writes:               0
   ========= Power Analysis ======================
   FU Leakage Power:                1.052184 mW 
   FU Dynamic Power:                1.390106 mW 
   FU Total Power:                  2.442290 mW 

   Registers Leakage Power:          0.007939 mW 
   Registers Dynamic Power:          0.045067 mW 
       Register Reads (Bits):        230408
       Register Writes (Bits):       231961
   Registers Total Power:            0.053006 mW

   SPM Leakage Power:               0.099590 mW
   SPM Read Dynamic Power:          2.167863 mW
   SPM Write Dynamic Power:         1.590245 mW
   SPM Total Power:                 3.857697 mW

   Cache Leakage Power:             0.000000 mW
   Cache Read Dynamic Power:        0.000000 mW
   Cache Write Dynamic Power:       0.000000 mW
   Cache Total Power:               0.000000 mW

   Accelerator Power:               2.495296 mW
   Accelerator Power (SPM):         6.352993 mW
   Accelerator Power (Cache):       2.495296 mW

   ========= Area Analysis =======================
   FU Area:                         141669.281250 um^2 (0.141669 mm^2)
   Register Area:                   645.272827 um^2 (0.000645 mm^2)
   SPM Area:                        1894.672457 um^2 (0.001895 mm^2)
   Cache Area:                      0.000000 um^2 (0.000000 mm^2)

   Accelerator Area:                142314.546875 um^2 (0.142315 mm^2)
   Accelerator Area (SPM):          144209.219332 um^2 (0.144209 mm^2)
   Accelerator Area (Cache):        142314.546875 um^2 (0.142315 mm^2)

   ========= SPM Resizing  =======================
   SPM Optimized Leakage Power:     0.003117 mW
   SPM Opt Area:                    91.617373 um^2

281312516375: system.acctest.elem_matrix0_dma: SRC:0x0000000024010020, DST:0x00000000853ccf8c, LEN:65536
281324466375: system.acctest.elem_matrix0_dma: Transfer completed in 11.95 us
281339109875: system.acctest.elem_matrix0_dma: SRC:0x00000000853ccf8c, DST:0x0000000024000020, LEN:65536
281362199875: system.acctest.elem_matrix0_dma: Transfer completed in 23.09 us
281367725625: system.acctest.elem_matrix0_dma: SRC:0x000000008734d148, DST:0x0000000024010020, LEN:65536
281390745625: system.acctest.elem_matrix0_dma: Transfer completed in 23.02 us
281411461375: system.acctest.elem_matrix1_dma: SRC:0x0000000024110020, DST:0x0000000085bccfac, LEN:65536
********************************************************************************
system.acctest.elem_matrix0.compute
   ========= Performance Analysis =============
   Setup Time:                      5.829248seconds
   Simulation Time:                 73.746902seconds
   System Clock:                    1.000000GHz
   Transistor Latency:              1ns
   Runtime:                         16392 cycles
   Runtime:                         16.392000 us
   Stalls:                          0 cycles
   Executed Nodes:                  16391 cycles

********************************************************************************
   ========= Performance Analysis =================
   Setup Time:                      5829247992.000000ns
   Simulation Time:                 73746901641.000000ns
   System Clock:                    1.000000GHz
   Transistor Latency:              0ns
   Runtime:                         16392 cycles
   Runtime:                         0.000002 seconds
   Stalls:                          0 cycles
       Load Only:                   0 cycles
       Store Only:                  0 cycles
       Compute Only:                0 cycles
       Compute & Store:             0 cycles
       Load & Store:                0 cycles
       Load & Compute:              0 cycles
       Load & Compute & Store:      0 cycles
   Executed Nodes:                  16391 cycles
       Load Only:                   0 cycles
       Store Only:                  4 cycles
       Compute Only:                1 cycles
       Compute & Store:             32 cycles
       Load & Store:                0 cycles
       Load & Compute:              6 cycles
       Load & Compute & Store:      16348 cycles

   ========= Runtime FU's ========= (Max | Avg) ===
   Counter FU's:                      32 | 0.031237
   Integer Add/Sub FU's:               0 | 0.000000
   Integer Mul/Div FU's:               0 | 0.000000
   Integer Shifter FU's:               0 | 0.000000
   Integer Bitwise FU's:               1 | 0.000061
   Floating Point Float Add/Sub:       0 | 0.000000
   Floating Point Double Add/Sub:      0 | 0.000000
   Floating Point Float Mul/Div:       1 | 0.999512
   Floating Point Double Mul/Div:      0 | 0.000000
   0 Cycle Compare FU's:             101 | 0.031657
   GEP Instruction FU's:              96 | 0.031235
   Type Conversion FU's:               7 | 0.004523

   ========= Static FU's ==========================
   Counter FU's:                    0
   Integer Add/Sub FU's:            0
   Integer Mul/Div FU's:            0
   Integer Shifter FU's:            0
   Integer Bitwise FU's:            0
   Floating Point Float Add/Sub:    0
   Floating Point Double Add/Sub:   0
   Floating Point Float Mul/Div:    0
   Floating Point Double Mul/Div:   0
   0 Cycle Compare FU's:            0
   GEP Instruction FU's:            0
   Type Conversion FU's:            0
   Other:                           0

   ========= Pipeline Register Usage =============
   Total Number of Registers:       5641
   Max Register Usage Per Cycle:    135
   Avg Register Usage Per Cycle:    8.090288
   Avg Register Size (Bytes):       5.980606

   ========= Memory Configuration =================
   Cache Bus Ports:                 0
   Shared Cache Size:               0kB
   Local Bus Ports:                 0
   Private SPM Size:                256kB
   Private Read Ports:              0
   Private Write Ports:             0
   Private Read Bus Width:          64
   Private Write Bus Width:         64
       Memory Reads:                0
       Memory Writes:               0
   ========= Power Analysis ======================
   FU Leakage Power:                0.045377 mW 
   FU Dynamic Power:                0.293182 mW 
   FU Total Power:                  0.338559 mW 

   Registers Leakage Power:          0.003521 mW 
   Registers Dynamic Power:          0.015320 mW 
       Register Reads (Bits):        132616
       Register Writes (Bits):       133658
   Registers Total Power:            0.018841 mW

   SPM Leakage Power:               0.099590 mW
   SPM Read Dynamic Power:          2.519734 mW
   SPM Write Dynamic Power:         1.839340 mW
   SPM Total Power:                 4.458663 mW

   Cache Leakage Power:             0.000000 mW
   Cache Read Dynamic Power:        0.000000 mW
   Cache Write Dynamic Power:       0.000000 mW
   Cache Total Power:               0.000000 mW

   Accelerator Power:               0.357400 mW
   Accelerator Power (SPM):         4.816064 mW
   Accelerator Power (Cache):       0.357400 mW

   ========= Area Analysis =======================
   FU Area:                         5472.068359 um^2 (0.005472 mm^2)
   Register Area:                   286.180725 um^2 (0.000286 mm^2)
   SPM Area:                        1894.672457 um^2 (0.001895 mm^2)
   Cache Area:                      0.000000 um^2 (0.000000 mm^2)

   Accelerator Area:                5758.249023 um^2 (0.005758 mm^2)
   Accelerator Area (SPM):          7652.921481 um^2 (0.007653 mm^2)
   Accelerator Area (Cache):        5758.249023 um^2 (0.005758 mm^2)

   ========= SPM Resizing  =======================
   SPM Optimized Leakage Power:     0.003640 mW
   SPM Opt Area:                    97.220725 um^2

281423301375: system.acctest.elem_matrix1_dma: Transfer completed in 11.84 us
281438044875: system.acctest.elem_matrix1_dma: SRC:0x0000000085bccfac, DST:0x0000000024100020, LEN:65536
281461134875: system.acctest.elem_matrix1_dma: Transfer completed in 23.09 us
281466640625: system.acctest.elem_matrix1_dma: SRC:0x0000000087366748, DST:0x0000000024110020, LEN:65536
281489870625: system.acctest.elem_matrix1_dma: Transfer completed in 23.23 us
281509796375: system.acctest.elem_matrix0_dma: SRC:0x0000000024020020, DST:0x00000000853dcf8c, LEN:65536
********************************************************************************
system.acctest.elem_matrix1.compute
   ========= Performance Analysis =============
   Setup Time:                      6.723729seconds
   Simulation Time:                 59.748870seconds
   System Clock:                    1.000000GHz
   Transistor Latency:              1ns
   Runtime:                         16392 cycles
   Runtime:                         16.392000 us
   Stalls:                          0 cycles
   Executed Nodes:                  16391 cycles

********************************************************************************
   ========= Performance Analysis =================
   Setup Time:                      6723729013.000000ns
   Simulation Time:                 59748869875.000000ns
   System Clock:                    1.000000GHz
   Transistor Latency:              0ns
   Runtime:                         16392 cycles
   Runtime:                         0.000002 seconds
   Stalls:                          0 cycles
       Load Only:                   0 cycles
       Store Only:                  0 cycles
       Compute Only:                0 cycles
       Compute & Store:             0 cycles
       Load & Store:                0 cycles
       Load & Compute:              0 cycles
       Load & Compute & Store:      0 cycles
   Executed Nodes:                  16391 cycles
       Load Only:                   0 cycles
       Store Only:                  4 cycles
       Compute Only:                1 cycles
       Compute & Store:             32 cycles
       Load & Store:                0 cycles
       Load & Compute:              6 cycles
       Load & Compute & Store:      16348 cycles

   ========= Runtime FU's ========= (Max | Avg) ===
   Counter FU's:                      32 | 0.031237
   Integer Add/Sub FU's:               0 | 0.000000
   Integer Mul/Div FU's:               0 | 0.000000
   Integer Shifter FU's:               0 | 0.000000
   Integer Bitwise FU's:               1 | 0.000061
   Floating Point Float Add/Sub:       0 | 0.000000
   Floating Point Double Add/Sub:      0 | 0.000000
   Floating Point Float Mul/Div:       1 | 0.999512
   Floating Point Double Mul/Div:      0 | 0.000000
   0 Cycle Compare FU's:             101 | 0.031657
   GEP Instruction FU's:              96 | 0.031235
   Type Conversion FU's:               7 | 0.004523

   ========= Static FU's ==========================
   Counter FU's:                    0
   Integer Add/Sub FU's:            0
   Integer Mul/Div FU's:            0
   Integer Shifter FU's:            0
   Integer Bitwise FU's:            0
   Floating Point Float Add/Sub:    0
   Floating Point Double Add/Sub:   0
   Floating Point Float Mul/Div:    0
   Floating Point Double Mul/Div:   0
   0 Cycle Compare FU's:            0
   GEP Instruction FU's:            0
   Type Conversion FU's:            0
   Other:                           0

   ========= Pipeline Register Usage =============
   Total Number of Registers:       5641
   Max Register Usage Per Cycle:    135
   Avg Register Usage Per Cycle:    8.090288
   Avg Register Size (Bytes):       5.980606

   ========= Memory Configuration =================
   Cache Bus Ports:                 0
   Shared Cache Size:               0kB
   Local Bus Ports:                 0
   Private SPM Size:                256kB
   Private Read Ports:              0
   Private Write Ports:             0
   Private Read Bus Width:          64
   Private Write Bus Width:         64
       Memory Reads:                0
       Memory Writes:               0
   ========= Power Analysis ======================
   FU Leakage Power:                0.045377 mW 
   FU Dynamic Power:                0.293182 mW 
   FU Total Power:                  0.338559 mW 

   Registers Leakage Power:          0.003521 mW 
   Registers Dynamic Power:          0.015320 mW 
       Register Reads (Bits):        132616
       Register Writes (Bits):       133658
   Registers Total Power:            0.018841 mW

   SPM Leakage Power:               0.099590 mW
   SPM Read Dynamic Power:          2.519734 mW
   SPM Write Dynamic Power:         1.839340 mW
   SPM Total Power:                 4.458663 mW

   Cache Leakage Power:             0.000000 mW
   Cache Read Dynamic Power:        0.000000 mW
   Cache Write Dynamic Power:       0.000000 mW
   Cache Total Power:               0.000000 mW

   Accelerator Power:               0.357400 mW
   Accelerator Power (SPM):         4.816064 mW
   Accelerator Power (Cache):       0.357400 mW

   ========= Area Analysis =======================
   FU Area:                         5472.068359 um^2 (0.005472 mm^2)
   Register Area:                   286.180725 um^2 (0.000286 mm^2)
   SPM Area:                        1894.672457 um^2 (0.001895 mm^2)
   Cache Area:                      0.000000 um^2 (0.000000 mm^2)

   Accelerator Area:                5758.249023 um^2 (0.005758 mm^2)
   Accelerator Area (SPM):          7652.921481 um^2 (0.007653 mm^2)
   Accelerator Area (Cache):        5758.249023 um^2 (0.005758 mm^2)

   ========= SPM Resizing  =======================
   SPM Optimized Leakage Power:     0.003640 mW
   SPM Opt Area:                    97.220725 um^2

281521826375: system.acctest.elem_matrix0_dma: Transfer completed in 12.03 us
281536069875: system.acctest.elem_matrix0_dma: SRC:0x00000000853dcf8c, DST:0x0000000024000020, LEN:65536
281559179875: system.acctest.elem_matrix0_dma: Transfer completed in 23.11 us
281564690625: system.acctest.elem_matrix0_dma: SRC:0x000000008534cf88, DST:0x0000000024010020, LEN:65536
281587860625: system.acctest.elem_matrix0_dma: Transfer completed in 23.17 us
281608191375: system.acctest.elem_matrix1_dma: SRC:0x0000000024120020, DST:0x0000000085bdcfac, LEN:65536
********************************************************************************
system.acctest.elem_matrix0.compute
   ========= Performance Analysis =============
   Setup Time:                      6.482155seconds
   Simulation Time:                 51.028754seconds
   System Clock:                    1.000000GHz
   Transistor Latency:              1ns
   Runtime:                         16394 cycles
   Runtime:                         16.394000 us
   Stalls:                          1 cycles
   Executed Nodes:                  16392 cycles

********************************************************************************
   ========= Performance Analysis =================
   Setup Time:                      6482155384.000000ns
   Simulation Time:                 51028753857.000000ns
   System Clock:                    1.000000GHz
   Transistor Latency:              0ns
   Runtime:                         16394 cycles
   Runtime:                         0.000002 seconds
   Stalls:                          1 cycles
       Load Only:                   0 cycles
       Store Only:                  1 cycles
       Compute Only:                0 cycles
       Compute & Store:             0 cycles
       Load & Store:                0 cycles
       Load & Compute:              0 cycles
       Load & Compute & Store:      0 cycles
   Executed Nodes:                  16392 cycles
       Load Only:                   0 cycles
       Store Only:                  5 cycles
       Compute Only:                1 cycles
       Compute & Store:             32 cycles
       Load & Store:                0 cycles
       Load & Compute:              7 cycles
       Load & Compute & Store:      16347 cycles

   ========= Runtime FU's ========= (Max | Avg) ===
   Counter FU's:                      32 | 0.031233
   Integer Add/Sub FU's:               0 | 0.000000
   Integer Mul/Div FU's:               0 | 0.000000
   Integer Shifter FU's:               0 | 0.000000
   Integer Bitwise FU's:               1 | 0.000061
   Floating Point Float Add/Sub:       1 | 0.999390
   Floating Point Double Add/Sub:      0 | 0.000000
   Floating Point Float Mul/Div:       0 | 0.000000
   Floating Point Double Mul/Div:      0 | 0.000000
   0 Cycle Compare FU's:             101 | 0.031672
   GEP Instruction FU's:              96 | 0.031231
   Type Conversion FU's:               7 | 0.004523

   ========= Static FU's ==========================
   Counter FU's:                    0
   Integer Add/Sub FU's:            0
   Integer Mul/Div FU's:            0
   Integer Shifter FU's:            0
   Integer Bitwise FU's:            0
   Floating Point Float Add/Sub:    0
   Floating Point Double Add/Sub:   0
   Floating Point Float Mul/Div:    0
   Floating Point Double Mul/Div:   0
   0 Cycle Compare FU's:            0
   GEP Instruction FU's:            0
   Type Conversion FU's:            0
   Other:                           0

   ========= Pipeline Register Usage =============
   Total Number of Registers:       5641
   Max Register Usage Per Cycle:    135
   Avg Register Usage Per Cycle:    8.089301
   Avg Register Size (Bytes):       5.980606

   ========= Memory Configuration =================
   Cache Bus Ports:                 0
   Shared Cache Size:               0kB
   Local Bus Ports:                 0
   Private SPM Size:                256kB
   Private Read Ports:              0
   Private Write Ports:             0
   Private Read Bus Width:          64
   Private Write Bus Width:         64
       Memory Reads:                0
       Memory Writes:               0
   ========= Power Analysis ======================
   FU Leakage Power:                0.015866 mW 
   FU Dynamic Power:                0.231200 mW 
   FU Total Power:                  0.247066 mW 

   Registers Leakage Power:          0.003521 mW 
   Registers Dynamic Power:          0.015322 mW 
       Register Reads (Bits):        132616
       Register Writes (Bits):       133658
   Registers Total Power:            0.018843 mW

   SPM Leakage Power:               0.099590 mW
   SPM Read Dynamic Power:          2.753796 mW
   SPM Write Dynamic Power:         2.063240 mW
[...]
   0 Cycle Compare FU's:              26 | 0.199329
   GEP Instruction FU's:               3 | 0.208571
   Type Conversion FU's:              14 | 0.062158

   ========= Static FU's ==========================
   Counter FU's:                    0
   Integer Add/Sub FU's:            0
   Integer Mul/Div FU's:            0
   Integer Shifter FU's:            0
   Integer Bitwise FU's:            0
   Floating Point Float Add/Sub:    0
   Floating Point Double Add/Sub:   0
   Floating Point Float Mul/Div:    0
   Floating Point Double Mul/Div:   0
   0 Cycle Compare FU's:            0
   GEP Instruction FU's:            0
   Type Conversion FU's:            0
   Other:                           0

   ========= Pipeline Register Usage =============
   Total Number of Registers:       146
   Max Register Usage Per Cycle:    20
   Avg Register Usage Per Cycle:    5.029864
   Avg Register Size (Bytes):       5.546762

   ========= Memory Configuration =================
   Cache Bus Ports:                 0
   Shared Cache Size:               0kB
   Local Bus Ports:                 0
   Private SPM Size:                192kB
   Private Read Ports:              0
   Private Write Ports:             0
   Private Read Bus Width:          64
   Private Write Bus Width:         64
       Memory Reads:                0
       Memory Writes:               0
   ========= Power Analysis ======================
   FU Leakage Power:                0.010458 mW 
   FU Dynamic Power:                2.202634 mW 
   FU Total Power:                  2.213092 mW 

   Registers Leakage Power:          0.002041 mW 
   Registers Dynamic Power:          0.236415 mW 
       Register Reads (Bits):        528188
       Register Writes (Bits):       578368
   Registers Total Power:            0.238456 mW

   SPM Leakage Power:               0.062732 mW
   SPM Read Dynamic Power:          0.480716 mW
   SPM Write Dynamic Power:         0.503902 mW
   SPM Total Power:                 1.047349 mW

   Cache Leakage Power:             0.000000 mW
   Cache Read Dynamic Power:        0.000000 mW
   Cache Write Dynamic Power:       0.000000 mW
   Cache Total Power:               0.000000 mW

   Accelerator Power:               2.451548 mW
   Accelerator Power (SPM):         3.498897 mW
   Accelerator Power (Cache):       2.451548 mW

   ========= Area Analysis =======================
   FU Area:                         799.308228 um^2 (0.000799 mm^2)
   Register Area:                   165.887924 um^2 (0.000166 mm^2)
   SPM Area:                        662.644729 um^2 (0.000663 mm^2)
   Cache Area:                      0.000000 um^2 (0.000000 mm^2)

   Accelerator Area:                965.196167 um^2 (0.000965 mm^2)
   Accelerator Area (SPM):          1627.840896 um^2 (0.001628 mm^2)
   Accelerator Area (Cache):        965.196167 um^2 (0.000965 mm^2)

   ========= SPM Resizing  =======================
   SPM Optimized Leakage Power:     0.001501 mW
   SPM Opt Area:                    29.920895 um^2

********************************************************************************
system.acctest.elem_matrix1.compute
   ========= Performance Analysis =============
   Setup Time:                      5.720814seconds
   Simulation Time:                 71.137506seconds
   System Clock:                    1.000000GHz
   Transistor Latency:              1ns
   Runtime:                         16394 cycles
   Runtime:                         16.394000 us
   Stalls:                          1 cycles
   Executed Nodes:                  16392 cycles

********************************************************************************
   ========= Performance Analysis =================
   Setup Time:                      5720813750.000000ns
   Simulation Time:                 71137506150.000000ns
   System Clock:                    1.000000GHz
   Transistor Latency:              0ns
   Runtime:                         16394 cycles
   Runtime:                         0.000002 seconds
   Stalls:                          1 cycles
       Load Only:                   0 cycles
       Store Only:                  1 cycles
       Compute Only:                0 cycles
       Compute & Store:             0 cycles
       Load & Store:                0 cycles
       Load & Compute:              0 cycles
       Load & Compute & Store:      0 cycles
   Executed Nodes:                  16392 cycles
       Load Only:                   0 cycles
       Store Only:                  5 cycles
       Compute Only:                1 cycles
       Compute & Store:             32 cycles
       Load & Store:                0 cycles
       Load & Compute:              7 cycles
       Load & Compute & Store:      16347 cycles

   ========= Runtime FU's ========= (Max | Avg) ===
   Counter FU's:                      32 | 0.031233
   Integer Add/Sub FU's:               0 | 0.000000
   Integer Mul/Div FU's:               0 | 0.000000
   Integer Shifter FU's:               0 | 0.000000
   Integer Bitwise FU's:               1 | 0.000061
   Floating Point Float Add/Sub:       1 | 0.999390
   Floating Point Double Add/Sub:      0 | 0.000000
   Floating Point Float Mul/Div:       0 | 0.000000
   Floating Point Double Mul/Div:      0 | 0.000000
   0 Cycle Compare FU's:             101 | 0.031672
   GEP Instruction FU's:              96 | 0.031231
   Type Conversion FU's:               7 | 0.004523

   ========= Static FU's ==========================
   Counter FU's:                    0
   Integer Add/Sub FU's:            0
   Integer Mul/Div FU's:            0
   Integer Shifter FU's:            0
   Integer Bitwise FU's:            0
   Floating Point Float Add/Sub:    0
   Floating Point Double Add/Sub:   0
   Floating Point Float Mul/Div:    0
   Floating Point Double Mul/Div:   0
   0 Cycle Compare FU's:            0
   GEP Instruction FU's:            0
   Type Conversion FU's:            0
   Other:                           0

   ========= Pipeline Register Usage =============
   Total Number of Registers:       5641
   Max Register Usage Per Cycle:    135
   Avg Register Usage Per Cycle:    8.089301
   Avg Register Size (Bytes):       5.980606

   ========= Memory Configuration =================
   Cache Bus Ports:                 0
   Shared Cache Size:               0kB
   Local Bus Ports:                 0
   Private SPM Size:                256kB
   Private Read Ports:              0
   Private Write Ports:             0
   Private Read Bus Width:          64
   Private Write Bus Width:         64
       Memory Reads:                0
       Memory Writes:               0
   ========= Power Analysis ======================
   FU Leakage Power:                0.015866 mW 
   FU Dynamic Power:                0.231200 mW 
   FU Total Power:                  0.247066 mW 

   Registers Leakage Power:          0.003521 mW 
   Registers Dynamic Power:          0.015322 mW 
       Register Reads (Bits):        132616
       Register Writes (Bits):       133658
   Registers Total Power:            0.018843 mW

   SPM Leakage Power:               0.099590 mW
   SPM Read Dynamic Power:          12.776708 mW
   SPM Write Dynamic Power:         9.716370 mW
   SPM Total Power:                 22.592668 mW

   Cache Leakage Power:             0.000000 mW
   Cache Read Dynamic Power:        0.000000 mW
   Cache Write Dynamic Power:       0.000000 mW
   Cache Total Power:               0.000000 mW

   Accelerator Power:               0.265909 mW
   Accelerator Power (SPM):         22.858577 mW
   Accelerator Power (Cache):       0.265909 mW

   ========= Area Analysis =======================
   FU Area:                         2113.963867 um^2 (0.002114 mm^2)
   Register Area:                   286.180725 um^2 (0.000286 mm^2)
   SPM Area:                        1894.672457 um^2 (0.001895 mm^2)
   Cache Area:                      0.000000 um^2 (0.000000 mm^2)

   Accelerator Area:                2400.144531 um^2 (0.002400 mm^2)
   Accelerator Area (SPM):          4294.816988 um^2 (0.004295 mm^2)
   Accelerator Area (Cache):        2400.144531 um^2 (0.002400 mm^2)

   ========= SPM Resizing  =======================
   SPM Optimized Leakage Power:     0.003640 mW
   SPM Opt Area:                    97.220725 um^2

343709341375: system.acctest.harris_non_max0_dma: SRC:0x0000000026010020, DST:0x00000000876ef580, LEN:16384
343712171375: system.acctest.harris_non_max0_dma: Transfer completed in 2.83 us
343730126375: system.acctest.elem_matrix1_dma: SRC:0x0000000024120020, DST:0x00000000877b4d98, LEN:65536
343741896375: system.acctest.elem_matrix1_dma: Transfer completed in 11.77 us
343755164875: system.acctest.elem_matrix1_dma: SRC:0x00000000877b4d98, DST:0x0000000024100020, LEN:65536
343778154875: system.acctest.elem_matrix1_dma: Transfer completed in 22.99 us
343783665625: system.acctest.elem_matrix1_dma: SRC:0x00000000877e4da0, DST:0x0000000024110020, LEN:65536
343798995625: system.acctest.elem_matrix1_dma: Transfer completed in 15.33 us
********************************************************************************
system.acctest.elem_matrix1.compute
   ========= Performance Analysis =============
   Setup Time:                      6.411344seconds
   Simulation Time:                 59.944892seconds
   System Clock:                    1.000000GHz
   Transistor Latency:              1ns
   Runtime:                         16394 cycles
   Runtime:                         16.394000 us
   Stalls:                          1 cycles
   Executed Nodes:                  16392 cycles

********************************************************************************
   ========= Performance Analysis =================
   Setup Time:                      6411344080.000000ns
   Simulation Time:                 59944891537.000000ns
   System Clock:                    1.000000GHz
   Transistor Latency:              0ns
   Runtime:                         16394 cycles
   Runtime:                         0.000002 seconds
   Stalls:                          1 cycles
       Load Only:                   0 cycles
       Store Only:                  1 cycles
       Compute Only:                0 cycles
       Compute & Store:             0 cycles
       Load & Store:                0 cycles
       Load & Compute:              0 cycles
       Load & Compute & Store:      0 cycles
   Executed Nodes:                  16392 cycles
       Load Only:                   0 cycles
       Store Only:                  5 cycles
       Compute Only:                1 cycles
       Compute & Store:             32 cycles
       Load & Store:                0 cycles
       Load & Compute:              7 cycles
       Load & Compute & Store:      16347 cycles

   ========= Runtime FU's ========= (Max | Avg) ===
   Counter FU's:                      32 | 0.031233
   Integer Add/Sub FU's:               0 | 0.000000
   Integer Mul/Div FU's:               0 | 0.000000
   Integer Shifter FU's:               0 | 0.000000
   Integer Bitwise FU's:               1 | 0.000061
   Floating Point Float Add/Sub:       1 | 0.999390
   Floating Point Double Add/Sub:      0 | 0.000000
   Floating Point Float Mul/Div:       0 | 0.000000
   Floating Point Double Mul/Div:      0 | 0.000000
   0 Cycle Compare FU's:             101 | 0.031672
   GEP Instruction FU's:              96 | 0.031231
   Type Conversion FU's:               7 | 0.004523

   ========= Static FU's ==========================
   Counter FU's:                    0
   Integer Add/Sub FU's:            0
   Integer Mul/Div FU's:            0
   Integer Shifter FU's:            0
   Integer Bitwise FU's:            0
   Floating Point Float Add/Sub:    0
   Floating Point Double Add/Sub:   0
   Floating Point Float Mul/Div:    0
   Floating Point Double Mul/Div:   0
   0 Cycle Compare FU's:            0
   GEP Instruction FU's:            0
   Type Conversion FU's:            0
   Other:                           0

   ========= Pipeline Register Usage =============
   Total Number of Registers:       5641
   Max Register Usage Per Cycle:    135
   Avg Register Usage Per Cycle:    8.089301
   Avg Register Size (Bytes):       5.980606

   ========= Memory Configuration =================
   Cache Bus Ports:                 0
   Shared Cache Size:               0kB
   Local Bus Ports:                 0
   Private SPM Size:                256kB
   Private Read Ports:              0
   Private Write Ports:             0
   Private Read Bus Width:          64
   Private Write Bus Width:         64
       Memory Reads:                0
       Memory Writes:               0
   ========= Power Analysis ======================
   FU Leakage Power:                0.015866 mW 
   FU Dynamic Power:                0.231200 mW 
   FU Total Power:                  0.247066 mW 

   Registers Leakage Power:          0.003521 mW 
   Registers Dynamic Power:          0.015322 mW 
       Register Reads (Bits):        132616
       Register Writes (Bits):       133658
   Registers Total Power:            0.018843 mW

   SPM Leakage Power:               0.099590 mW
   SPM Read Dynamic Power:          12.831755 mW
   SPM Write Dynamic Power:         9.744945 mW
   SPM Total Power:                 22.676290 mW

   Cache Leakage Power:             0.000000 mW
   Cache Read Dynamic Power:        0.000000 mW
   Cache Write Dynamic Power:       0.000000 mW
   Cache Total Power:               0.000000 mW

   Accelerator Power:               0.265909 mW
   Accelerator Power (SPM):         22.942199 mW
   Accelerator Power (Cache):       0.265909 mW

   ========= Area Analysis =======================
   FU Area:                         2113.963867 um^2 (0.002114 mm^2)
   Register Area:                   286.180725 um^2 (0.000286 mm^2)
   SPM Area:                        1894.672457 um^2 (0.001895 mm^2)
   Cache Area:                      0.000000 um^2 (0.000000 mm^2)

   Accelerator Area:                2400.144531 um^2 (0.002400 mm^2)
   Accelerator Area (SPM):          4294.816988 um^2 (0.004295 mm^2)
   Accelerator Area (Cache):        2400.144531 um^2 (0.002400 mm^2)

   ========= SPM Resizing  =======================
   SPM Optimized Leakage Power:     0.003640 mW
   SPM Opt Area:                    97.220725 um^2

343838859875: system.acctest.harris_non_max0_dma: SRC:0x0000000024120020, DST:0x0000000026000020, LEN:65536
343849109875: system.acctest.harris_non_max0_dma: Transfer completed in 10.25 us
********************************************************************************
system.acctest.harris_non_max0.compute
   ========= Performance Analysis =============
   Setup Time:                      0.008485seconds
   Simulation Time:                 1.925695seconds
   System Clock:                    1.000000GHz
   Transistor Latency:              1ns
   Runtime:                         105010 cycles
   Runtime:                         105.010000 us
   Stalls:                          0 cycles
   Executed Nodes:                  105009 cycles

********************************************************************************
   ========= Performance Analysis =================
   Setup Time:                      8484528.000000ns
   Simulation Time:                 1925694949.000000ns
   System Clock:                    1.000000GHz
   Transistor Latency:              0ns
   Runtime:                         105010 cycles
   Runtime:                         0.000011 seconds
   Stalls:                          0 cycles
       Load Only:                   0 cycles
       Store Only:                  0 cycles
       Compute Only:                0 cycles
       Compute & Store:             0 cycles
       Load & Store:                0 cycles
       Load & Compute:              0 cycles
       Load & Compute & Store:      0 cycles
   Executed Nodes:                  105009 cycles
       Load Only:                   0 cycles
       Store Only:                  0 cycles
       Compute Only:                72241 cycles
       Compute & Store:             16384 cycles
       Load & Store:                0 cycles
       Load & Compute:              16384 cycles
       Load & Compute & Store:      0 cycles

   ========= Runtime FU's ========= (Max | Avg) ===
   Counter FU's:                       2 | 0.167889
   Integer Add/Sub FU's:               2 | 0.261670
   Integer Mul/Div FU's:               0 | 0.000000
   Integer Shifter FU's:               3 | 0.018017
   Integer Bitwise FU's:               1 | 0.472964
   Floating Point Float Add/Sub:       0 | 0.000000
   Floating Point Double Add/Sub:      0 | 0.000000
   Floating Point Float Mul/Div:       0 | 0.000000
   Floating Point Double Mul/Div:      0 | 0.000000
   0 Cycle Compare FU's:              26 | 0.199329
   GEP Instruction FU's:               3 | 0.208571
   Type Conversion FU's:              14 | 0.062158

   ========= Static FU's ==========================
   Counter FU's:                    0
   Integer Add/Sub FU's:            0
   Integer Mul/Div FU's:            0
   Integer Shifter FU's:            0
   Integer Bitwise FU's:            0
   Floating Point Float Add/Sub:    0
   Floating Point Double Add/Sub:   0
   Floating Point Float Mul/Div:    0
   Floating Point Double Mul/Div:   0
   0 Cycle Compare FU's:            0
   GEP Instruction FU's:            0
   Type Conversion FU's:            0
   Other:                           0

   ========= Pipeline Register Usage =============
   Total Number of Registers:       146
   Max Register Usage Per Cycle:    20
   Avg Register Usage Per Cycle:    5.029864
   Avg Register Size (Bytes):       5.546762

   ========= Memory Configuration =================
   Cache Bus Ports:                 0
   Shared Cache Size:               0kB
   Local Bus Ports:                 0
   Private SPM Size:                192kB
   Private Read Ports:              0
   Private Write Ports:             0
   Private Read Bus Width:          64
   Private Write Bus Width:         64
       Memory Reads:                0
       Memory Writes:               0
   ========= Power Analysis ======================
   FU Leakage Power:                0.010458 mW 
   FU Dynamic Power:                2.202634 mW 
   FU Total Power:                  2.213092 mW 

   Registers Leakage Power:          0.002041 mW 
   Registers Dynamic Power:          0.236415 mW 
       Register Reads (Bits):        528188
       Register Writes (Bits):       578368
   Registers Total Power:            0.238456 mW

   SPM Leakage Power:               0.062732 mW
   SPM Read Dynamic Power:          0.572132 mW
   SPM Write Dynamic Power:         0.603294 mW
   SPM Total Power:                 1.238158 mW

   Cache Leakage Power:             0.000000 mW
   Cache Read Dynamic Power:        0.000000 mW
   Cache Write Dynamic Power:       0.000000 mW
   Cache Total Power:               0.000000 mW

   Accelerator Power:               2.451548 mW
   Accelerator Power (SPM):         3.689706 mW
   Accelerator Power (Cache):       2.451548 mW

   ========= Area Analysis =======================
   FU Area:                         799.308228 um^2 (0.000799 mm^2)
   Register Area:                   165.887924 um^2 (0.000166 mm^2)
   SPM Area:                        662.644729 um^2 (0.000663 mm^2)
   Cache Area:                      0.000000 um^2 (0.000000 mm^2)

   Accelerator Area:                965.196167 um^2 (0.000965 mm^2)
   Accelerator Area (SPM):          1627.840896 um^2 (0.001628 mm^2)
   Accelerator Area (Cache):        965.196167 um^2 (0.000965 mm^2)

   ========= SPM Resizing  =======================
   SPM Optimized Leakage Power:     0.001501 mW
   SPM Opt Area:                    29.920895 um^2

343965201375: system.acctest.harris_non_max0_dma: SRC:0x0000000026010020, DST:0x0000000087804ed8, LEN:16384
343968001375: system.acctest.harris_non_max0_dma: Transfer completed in 2.8 us
Exiting @ tick 343977424375 because m5_exit instruction encountered
