
---------- Begin Simulation Statistics ----------
final_tick                               343976843750                       # Number of ticks from beginning of simulation (restored from checkpoints and never reset)
host_inst_rate                                    593                       # Simulator instruction rate (inst/s)
host_mem_usage                               14637460                       # Number of bytes of host memory used
host_op_rate                                      608                       # Simulator op (including micro ops) rate (op/s)
host_seconds                                 40986.47                       # Real time elapsed on the host
host_tick_rate                                1549630                       # Simulator tick rate (ticks/s)
sim_freq                                 1000000000000                       # Frequency of simulated ticks
sim_insts                                    24309135                       # Number of instructions simulated
sim_ops                                      24935306                       # Number of ops (including micro ops) simulated
sim_seconds                                  0.063514                       # Number of seconds simulated
sim_ticks                                 63513863750                       # Number of ticks simulated
system.acctest.coherency_bus.snoop_filter.hit_multi_requests            0                       # Number of requests hitting in the snoop filter with multiple (>1) holders of the requested data.
system.acctest.coherency_bus.snoop_filter.hit_multi_snoops            0                       # Number of snoops hitting in the snoop filter with multiple (>1) holders of the requested data.
system.acctest.coherency_bus.snoop_filter.hit_single_requests            0                       # Number of requests hitting in the snoop filter with a single holder of the requested data.
system.acctest.coherency_bus.snoop_filter.hit_single_snoops            0                       # Number of snoops hitting in the snoop filter with a single holder of the requested data.
system.acctest.coherency_bus.snoop_filter.tot_requests            0                       # Total number of requests made to the snoop filter.
system.acctest.coherency_bus.snoop_filter.tot_snoops            0                       # Total number of snoops made to the snoop filter.
system.cf0.dma_read_bytes                           0                       # Number of bytes transfered via DMA reads (not PRD).
system.cf0.dma_read_full_pages                      0                       # Number of full page size DMA reads (not PRD).
system.cf0.dma_read_txs                             0                       # Number of DMA read transactions (not PRD).
system.cf0.dma_write_bytes                          0                       # Number of bytes transfered via DMA writes.
system.cf0.dma_write_full_pages                     0                       # Number of full page size DMA writes.
system.cf0.dma_write_txs                            0                       # Number of DMA write transactions.
system.cpu.branchPred.BTBCorrect                    0                       # Number of correct BTB predictions (this stat may not work properly.
system.cpu.branchPred.BTBHitPct             96.346398                       # BTB Hit Percentage
system.cpu.branchPred.BTBHits                  346927                       # Number of BTB hits
system.cpu.branchPred.BTBLookups               360083                       # Number of BTB lookups
system.cpu.branchPred.RASInCorrect                  0                       # Number of incorrect RAS predictions.
system.cpu.branchPred.condIncorrect              3593                       # Number of conditional branches incorrect
system.cpu.branchPred.condPredicted            465678                       # Number of conditional branches predicted
system.cpu.branchPred.indirectHits               1111                       # Number of indirect target hits.
system.cpu.branchPred.indirectLookups            1320                       # Number of indirect predictor lookups.
system.cpu.branchPred.indirectMisses              209                       # Number of indirect misses.
system.cpu.branchPred.lookups                  505198                       # Number of BP lookups
system.cpu.branchPred.usedRAS                    2441                       # Number of times the RAS was used to get a target.
system.cpu.branchPredindirectMispredicted          139                       # Number of mispredicted indirect branches.
system.cpu.committedInsts                     2180913                       # Number of instructions committed
system.cpu.committedOps                       2213668                       # Number of ops (including micro ops) committed
system.cpu.cpi                              46.596165                       # CPI: cycles per instruction
system.cpu.discardedOps                         13509                       # Number of ops (including micro ops) which were discarded before commit
system.cpu.dtb.accesses                             0                       # DTB accesses
system.cpu.dtb.align_faults                         0                       # Number of TLB faults due to alignment restrictions
system.cpu.dtb.domain_faults                        0                       # Number of TLB faults due to domain restrictions
system.cpu.dtb.flush_entries                        0                       # Number of entries that have been flushed from TLB
system.cpu.dtb.flush_tlb                            0                       # Number of times complete TLB was flushed
system.cpu.dtb.flush_tlb_asid                       0                       # Number of times TLB was flushed by ASID
system.cpu.dtb.flush_tlb_mva                        0                       # Number of times TLB was flushed by MVA
system.cpu.dtb.flush_tlb_mva_asid                   0                       # Number of times TLB was flushed by MVA & ASID
system.cpu.dtb.hits                                 0                       # DTB hits
system.cpu.dtb.inst_accesses                        0                       # ITB inst accesses
system.cpu.dtb.inst_hits                            0                       # ITB inst hits
system.cpu.dtb.inst_misses                          0                       # ITB inst misses
system.cpu.dtb.misses                               0                       # DTB misses
system.cpu.dtb.perms_faults                         0                       # Number of TLB faults due to permissions restrictions
system.cpu.dtb.prefetch_faults                      0                       # Number of TLB faults due to prefetch
system.cpu.dtb.read_accesses                        0                       # DTB read accesses
system.cpu.dtb.read_hits                            0                       # DTB read hits
system.cpu.dtb.read_misses                          0                       # DTB read misses
system.cpu.dtb.stage2_mmu.stage2_tlb.accesses            0                       # DTB accesses
system.cpu.dtb.stage2_mmu.stage2_tlb.align_faults            0                       # Number of TLB faults due to alignment restrictions
system.cpu.dtb.stage2_mmu.stage2_tlb.domain_faults            0                       # Number of TLB faults due to domain restrictions
system.cpu.dtb.stage2_mmu.stage2_tlb.flush_entries            0                       # Number of entries that have been flushed from TLB
system.cpu.dtb.stage2_mmu.stage2_tlb.flush_tlb            0                       # Number of times complete TLB was flushed
system.cpu.dtb.stage2_mmu.stage2_tlb.flush_tlb_asid            0                       # Number of times TLB was flushed by ASID
system.cpu.dtb.stage2_mmu.stage2_tlb.flush_tlb_mva            0                       # Number of times TLB was flushed by MVA
system.cpu.dtb.stage2_mmu.stage2_tlb.flush_tlb_mva_asid            0                       # Number of times TLB was flushed by MVA & ASID
system.cpu.dtb.stage2_mmu.stage2_tlb.hits            0                       # DTB hits
system.cpu.dtb.stage2_mmu.stage2_tlb.inst_accesses            0                       # ITB inst accesses
system.cpu.dtb.stage2_mmu.stage2_tlb.inst_hits            0                       # ITB inst hits
system.cpu.dtb.stage2_mmu.stage2_tlb.inst_misses            0                       # ITB inst misses
system.cpu.dtb.stage2_mmu.stage2_tlb.misses            0                       # DTB misses
system.cpu.dtb.stage2_mmu.stage2_tlb.perms_faults            0                       # Number of TLB faults due to permissions restrictions
system.cpu.dtb.stage2_mmu.stage2_tlb.prefetch_faults            0                       # Number of TLB faults due to prefetch
system.cpu.dtb.stage2_mmu.stage2_tlb.read_accesses            0                       # DTB read accesses
system.cpu.dtb.stage2_mmu.stage2_tlb.read_hits            0                       # DTB read hits
system.cpu.dtb.stage2_mmu.stage2_tlb.read_misses            0                       # DTB read misses
system.cpu.dtb.stage2_mmu.stage2_tlb.walker.walkRequestOrigin_Requested::Data            0                       # Table walker requests started/completed, data/inst
system.cpu.dtb.stage2_mmu.stage2_tlb.walker.walkRequestOrigin_Requested::Inst            0                       # Table walker requests started/completed, data/inst
system.cpu.dtb.stage2_mmu.stage2_tlb.walker.walkRequestOrigin_Requested::total            0                       # Table walker requests started/completed, data/inst
system.cpu.dtb.stage2_mmu.stage2_tlb.walker.walkRequestOrigin_Completed::Data            0                       # Table walker requests started/completed, data/inst
system.cpu.dtb.stage2_mmu.stage2_tlb.walker.walkRequestOrigin_Completed::Inst            0                       # Table walker requests started/completed, data/inst
system.cpu.dtb.stage2_mmu.stage2_tlb.walker.walkRequestOrigin_Completed::total            0                       # Table walker requests started/completed, data/inst
system.cpu.dtb.stage2_mmu.stage2_tlb.walker.walkRequestOrigin::total            0                       # Table walker requests started/completed, data/inst
system.cpu.dtb.stage2_mmu.stage2_tlb.walker.walks            0                       # Table walker walks requested
system.cpu.dtb.stage2_mmu.stage2_tlb.write_accesses            0                       # DTB write accesses
system.cpu.dtb.stage2_mmu.stage2_tlb.write_hits            0                       # DTB write hits
system.cpu.dtb.stage2_mmu.stage2_tlb.write_misses            0                       # DTB write misses
system.cpu.dtb.walker.walkRequestOrigin_Requested::Data            0                       # Table walker requests started/completed, data/inst
system.cpu.dtb.walker.walkRequestOrigin_Requested::Inst            0                       # Table walker requests started/completed, data/inst
system.cpu.dtb.walker.walkRequestOrigin_Requested::total            0                       # Table walker requests started/completed, data/inst
system.cpu.dtb.walker.walkRequestOrigin_Completed::Data            0                       # Table walker requests started/completed, data/inst
system.cpu.dtb.walker.walkRequestOrigin_Completed::Inst            0                       # Table walker requests started/completed, data/inst
system.cpu.dtb.walker.walkRequestOrigin_Completed::total            0                       # Table walker requests started/completed, data/inst
system.cpu.dtb.walker.walkRequestOrigin::total            0                       # Table walker requests started/completed, data/inst
system.cpu.dtb.walker.walks                         0                       # Table walker walks requested
system.cpu.dtb.write_accesses                       0                       # DTB write accesses
system.cpu.dtb.write_hits                           0                       # DTB write hits
system.cpu.dtb.write_misses                         0                       # DTB write misses
system.cpu.fetch2.amo_instructions                  0                       # Number of memory atomic instructions successfully decoded
system.cpu.fetch2.fp_instructions                   0                       # Number of floating point instructions successfully decoded
system.cpu.fetch2.int_instructions            1061774                       # Number of integer instructions successfully decoded
system.cpu.fetch2.load_instructions            584044                       # Number of memory load instructions successfully decoded
system.cpu.fetch2.store_instructions            92256                       # Number of memory store instructions successfully decoded
system.cpu.fetch2.vec_instructions                  0                       # Number of SIMD instructions successfully decoded
system.cpu.idleCycles                        95916589                       # Total number of cycles that the object has spent stopped
system.cpu.ipc                               0.021461                       # IPC: instructions per cycle
system.cpu.itb.accesses                             0                       # DTB accesses
system.cpu.itb.align_faults                         0                       # Number of TLB faults due to alignment restrictions
system.cpu.itb.domain_faults                        0                       # Number of TLB faults due to domain restrictions
system.cpu.itb.flush_entries                        0                       # Number of entries that have been flushed from TLB
system.cpu.itb.flush_tlb                            0                       # Number of times complete TLB was flushed
system.cpu.itb.flush_tlb_asid                       0                       # Number of times TLB was flushed by ASID
system.cpu.itb.flush_tlb_mva                        0                       # Number of times TLB was flushed by MVA
system.cpu.itb.flush_tlb_mva_asid                   0                       # Number of times TLB was flushed by MVA & ASID
system.cpu.itb.hits                                 0                       # DTB hits
system.cpu.itb.inst_accesses                        0                       # ITB inst accesses
system.cpu.itb.inst_hits                            0                       # ITB inst hits
system.cpu.itb.inst_misses                          0                       # ITB inst misses
system.cpu.itb.misses                               0                       # DTB misses
system.cpu.itb.perms_faults                         0                       # Number of TLB faults due to permissions restrictions
system.cpu.itb.prefetch_faults                      0                       # Number of TLB faults due to prefetch
system.cpu.itb.read_accesses                        0                       # DTB read accesses
system.cpu.itb.read_hits                            0                       # DTB read hits
system.cpu.itb.read_misses                          0                       # DTB read misses
system.cpu.itb.stage2_mmu.stage2_tlb.accesses            0                       # DTB accesses
system.cpu.itb.stage2_mmu.stage2_tlb.align_faults            0                       # Number of TLB faults due to alignment restrictions
system.cpu.itb.stage2_mmu.stage2_tlb.domain_faults            0                       # Number of TLB faults due to domain restrictions
system.cpu.itb.stage2_mmu.stage2_tlb.flush_entries            0                       # Number of entries that have been flushed from TLB
system.cpu.itb.stage2_mmu.stage2_tlb.flush_tlb            0                       # Number of times complete TLB was flushed
system.cpu.itb.stage2_mmu.stage2_tlb.flush_tlb_asid            0                       # Number of times TLB was flushed by ASID
system.cpu.itb.stage2_mmu.stage2_tlb.flush_tlb_mva            0                       # Number of times TLB was flushed by MVA
system.cpu.itb.stage2_mmu.stage2_tlb.flush_tlb_mva_asid            0                       # Number of times TLB was flushed by MVA & ASID
system.cpu.itb.stage2_mmu.stage2_tlb.hits            0                       # DTB hits
system.cpu.itb.stage2_mmu.stage2_tlb.inst_accesses            0                       # ITB inst accesses
system.cpu.itb.stage2_mmu.stage2_tlb.inst_hits            0                       # ITB inst hits
system.cpu.itb.stage2_mmu.stage2_tlb.inst_misses            0                       # ITB inst misses
system.cpu.itb.stage2_mmu.stage2_tlb.misses            0                       # DTB misses
system.cpu.itb.stage2_mmu.stage2_tlb.perms_faults            0                       # Number of TLB faults due to permissions restrictions
system.cpu.itb.stage2_mmu.stage2_tlb.prefetch_faults            0                       # Number of TLB faults due to prefetch
system.cpu.itb.stage2_mmu.stage2_tlb.read_accesses            0                       # DTB read accesses
system.cpu.itb.stage2_mmu.stage2_tlb.read_hits            0                       # DTB read hits
system.cpu.itb.stage2_mmu.stage2_tlb.read_misses            0                       # DTB read misses
system.cpu.itb.stage2_mmu.stage2_tlb.walker.walkRequestOrigin_Requested::Data            0                       # Table walker requests started/completed, data/inst
system.cpu.itb.stage2_mmu.stage2_tlb.walker.walkRequestOrigin_Requested::Inst            0                       # Table walker requests started/completed, data/inst
system.cpu.itb.stage2_mmu.stage2_tlb.walker.walkRequestOrigin_Requested::total            0                       # Table walker requests started/completed, data/inst
system.cpu.itb.stage2_mmu.stage2_tlb.walker.walkRequestOrigin_Completed::Data            0                       # Table walker requests started/completed, data/inst
system.cpu.itb.stage2_mmu.stage2_tlb.walker.walkRequestOrigin_Completed::Inst            0                       # Table walker requests started/completed, data/inst
system.cpu.itb.stage2_mmu.stage2_tlb.walker.walkRequestOrigin_Completed::total            0                       # Table walker requests started/completed, data/inst
system.cpu.itb.stage2_mmu.stage2_tlb.walker.walkRequestOrigin::total            0                       # Table walker requests started/completed, data/inst
system.cpu.itb.stage2_mmu.stage2_tlb.walker.walks            0                       # Table walker walks requested
system.cpu.itb.stage2_mmu.stage2_tlb.write_accesses            0                       # DTB write accesses
system.cpu.itb.stage2_mmu.stage2_tlb.write_hits            0                       # DTB write hits
system.cpu.itb.stage2_mmu.stage2_tlb.write_misses            0                       # DTB write misses
system.cpu.itb.walker.walkRequestOrigin_Requested::Data            0                       # Table walker requests started/completed, data/inst
system.cpu.itb.walker.walkRequestOrigin_Requested::Inst            0                       # Table walker requests started/completed, data/inst
system.cpu.itb.walker.walkRequestOrigin_Requested::total            0                       # Table walker requests started/completed, data/inst
system.cpu.itb.walker.walkRequestOrigin_Completed::Data            0                       # Table walker requests started/completed, data/inst
system.cpu.itb.walker.walkRequestOrigin_Completed::Inst            0                       # Table walker requests started/completed, data/inst
system.cpu.itb.walker.walkRequestOrigin_Completed::total            0                       # Table walker requests started/completed, data/inst
system.cpu.itb.walker.walkRequestOrigin::total            0                       # Table walker requests started/completed, data/inst
system.cpu.itb.walker.walks                         0                       # Table walker walks requested
system.cpu.itb.write_accesses                       0                       # DTB write accesses
system.cpu.itb.write_hits                           0                       # DTB write hits
system.cpu.itb.write_misses                         0                       # DTB write misses
system.cpu.kern.inst.arm                            0                       # number of arm instructions executed
system.cpu.kern.inst.quiesce                        0                       # number of quiesce instructions executed
system.cpu.numCycles                        101622182                       # number of cpu cycles simulated
system.cpu.numFetchSuspends                         0                       # Number of times Execute suspended instruction fetching
system.cpu.numWorkItemsCompleted                    0                       # number of work items this cpu completed
system.cpu.numWorkItemsStarted                      0                       # number of work items this cpu started
system.cpu.op_class_0::No_OpClass                   0      0.00%      0.00% # Class of committed instruction
system.cpu.op_class_0::IntAlu                 1525726     68.92%     68.92% # Class of committed instruction
system.cpu.op_class_0::IntMult                   1223      0.06%     68.98% # Class of committed instruction
system.cpu.op_class_0::IntDiv                       0      0.00%     68.98% # Class of committed instruction
system.cpu.op_class_0::FloatAdd                     0      0.00%     68.98% # Class of committed instruction
system.cpu.op_class_0::FloatCmp                     0      0.00%     68.98% # Class of committed instruction
system.cpu.op_class_0::FloatCvt                     0      0.00%     68.98% # Class of committed instruction
system.cpu.op_class_0::FloatMult                    0      0.00%     68.98% # Class of committed instruction
system.cpu.op_class_0::FloatMultAcc                 0      0.00%     68.98% # Class of committed instruction
system.cpu.op_class_0::FloatDiv                     0      0.00%     68.98% # Class of committed instruction
system.cpu.op_class_0::FloatMisc                    0      0.00%     68.98% # Class of committed instruction
system.cpu.op_class_0::FloatSqrt                    0      0.00%     68.98% # Class of committed instruction
system.cpu.op_class_0::SimdAdd                      0      0.00%     68.98% # Class of committed instruction
system.cpu.op_class_0::SimdAddAcc                   0      0.00%     68.98% # Class of committed instruction
system.cpu.op_class_0::SimdAlu                      0      0.00%     68.98% # Class of committed instruction
system.cpu.op_class_0::SimdCmp                      0      0.00%     68.98% # Class of committed instruction
system.cpu.op_class_0::SimdCvt                      0      0.00%     68.98% # Class of committed instruction
system.cpu.op_class_0::SimdMisc                     0      0.00%     68.98% # Class of committed instruction
system.cpu.op_class_0::SimdMult                     0      0.00%     68.98% # Class of committed instruction
system.cpu.op_class_0::SimdMultAcc                  0      0.00%     68.98% # Class of committed instruction
system.cpu.op_class_0::SimdShift                    0      0.00%     68.98% # Class of committed instruction
system.cpu.op_class_0::SimdShiftAcc                 0      0.00%     68.98% # Class of committed instruction
system.cpu.op_class_0::SimdDiv                      0      0.00%     68.98% # Class of committed instruction
system.cpu.op_class_0::SimdSqrt                     0      0.00%     68.98% # Class of committed instruction
system.cpu.op_class_0::SimdFloatAdd                 0      0.00%     68.98% # Class of committed instruction
system.cpu.op_class_0::SimdFloatAlu                 0      0.00%     68.98% # Class of committed instruction
system.cpu.op_class_0::SimdFloatCmp                 0      0.00%     68.98% # Class of committed instruction
system.cpu.op_class_0::SimdFloatCvt                 0      0.00%     68.98% # Class of committed instruction
system.cpu.op_class_0::SimdFloatDiv                 0      0.00%     68.98% # Class of committed instruction
system.cpu.op_class_0::SimdFloatMisc                0      0.00%     68.98% # Class of committed instruction
system.cpu.op_class_0::SimdFloatMult                0      0.00%     68.98% # Class of committed instruction
system.cpu.op_class_0::SimdFloatMultAcc             0      0.00%     68.98% # Class of committed instruction
system.cpu.op_class_0::SimdFloatSqrt                0      0.00%     68.98% # Class of committed instruction
system.cpu.op_class_0::SimdReduceAdd                0      0.00%     68.98% # Class of committed instruction
system.cpu.op_class_0::SimdReduceAlu                0      0.00%     68.98% # Class of committed instruction
system.cpu.op_class_0::SimdReduceCmp                0      0.00%     68.98% # Class of committed instruction
system.cpu.op_class_0::SimdFloatReduceAdd            0      0.00%     68.98% # Class of committed instruction
system.cpu.op_class_0::SimdFloatReduceCmp            0      0.00%     68.98% # Class of committed instruction
system.cpu.op_class_0::SimdAes                      0      0.00%     68.98% # Class of committed instruction
system.cpu.op_class_0::SimdAesMix                   0      0.00%     68.98% # Class of committed instruction
system.cpu.op_class_0::SimdSha1Hash                 0      0.00%     68.98% # Class of committed instruction
system.cpu.op_class_0::SimdSha1Hash2                0      0.00%     68.98% # Class of committed instruction
system.cpu.op_class_0::SimdSha256Hash               0      0.00%     68.98% # Class of committed instruction
system.cpu.op_class_0::SimdSha256Hash2              0      0.00%     68.98% # Class of committed instruction
system.cpu.op_class_0::SimdShaSigma2                0      0.00%     68.98% # Class of committed instruction
system.cpu.op_class_0::SimdShaSigma3                0      0.00%     68.98% # Class of committed instruction
system.cpu.op_class_0::SimdPredAlu                  0      0.00%     68.98% # Class of committed instruction
system.cpu.op_class_0::MemRead                 579467     26.18%     95.16% # Class of committed instruction
system.cpu.op_class_0::MemWrite                107252      4.84%    100.00% # Class of committed instruction
system.cpu.op_class_0::FloatMemRead                 0      0.00%    100.00% # Class of committed instruction
system.cpu.op_class_0::FloatMemWrite                0      0.00%    100.00% # Class of committed instruction
system.cpu.op_class_0::IprAccess                    0      0.00%    100.00% # Class of committed instruction
system.cpu.op_class_0::InstPrefetch                 0      0.00%    100.00% # Class of committed instruction
system.cpu.op_class_0::total                  2213668                       # Class of committed instruction
system.cpu.tickCycles                         5705593                       # Number of cycles that the object actually ticked
system.membus.snoop_filter.hit_multi_requests            0                       # Number of requests hitting in the snoop filter with multiple (>1) holders of the requested data.
system.membus.snoop_filter.hit_multi_snoops            0                       # Number of snoops hitting in the snoop filter with multiple (>1) holders of the requested data.
system.membus.snoop_filter.hit_single_requests            0                       # Number of requests hitting in the snoop filter with a single holder of the requested data.
system.membus.snoop_filter.hit_single_snoops            0                       # Number of snoops hitting in the snoop filter with a single holder of the requested data.
system.membus.snoop_filter.tot_requests             0                       # Total number of requests made to the snoop filter.
system.membus.snoop_filter.tot_snoops               0                       # Total number of snoops made to the snoop filter.
system.bridge.pwrStateResidencyTicks::UNDEFINED 343976843750                       # Cumulative time (in ticks) in various power states
system.voltage_domain.voltage                       1                       # Voltage in Volts
system.iocache.pwrStateResidencyTicks::UNDEFINED 343976843750                       # Cumulative time (in ticks) in various power states
system.iocache.blocked_cycles::no_mshrs             0                       # number of cycles access was blocked
system.iocache.blocked_cycles::no_targets            0                       # number of cycles access was blocked
system.iocache.blocked::no_mshrs                    0                       # number of cycles access was blocked
system.iocache.blocked::no_targets                  0                       # number of cycles access was blocked
system.iocache.avg_blocked_cycles::no_mshrs          nan                       # average number of cycles each access was blocked
system.iocache.avg_blocked_cycles::no_targets          nan                       # average number of cycles each access was blocked
system.iocache.replacements                         0                       # number of replacements
system.iocache.tags.pwrStateResidencyTicks::UNDEFINED 343976843750                       # Cumulative time (in ticks) in various power states
system.iocache.tags.tagsinuse                       0                       # Cycle average of tags in use
system.iocache.tags.total_refs                      0                       # Total number of references to valid blocks.
system.iocache.tags.sampled_refs                    0                       # Sample count of references to valid blocks.
system.iocache.tags.avg_refs                      nan                       # Average number of references to valid blocks.
system.iocache.tags.warmup_cycle                    0                       # Cycle when the warmup percentage was hit.
system.iocache.tags.tag_accesses                    0                       # Number of tag accesses
system.iocache.tags.data_accesses                   0                       # Number of data accesses
system.membus.pwrStateResidencyTicks::UNDEFINED 343976843750                       # Cumulative time (in ticks) in various power states
system.membus.trans_dist::ReadReq             3446592                       # Transaction distribution
system.membus.trans_dist::ReadResp            3446592                       # Transaction distribution
system.membus.trans_dist::WriteReq            1248974                       # Transaction distribution
system.membus.trans_dist::WriteResp           1248974                       # Transaction distribution
system.membus.pkt_count_system.cpu.icache.mem_side::system.realview.bootmem.port      1785078                       # Packet count per connected master and slave (bytes)
system.membus.pkt_count_system.cpu.icache.mem_side::total      1785078                       # Packet count per connected master and slave (bytes)
system.membus.pkt_count_system.cpu.dcache.mem_side::system.realview.bootmem.port        71774                       # Packet count per connected master and slave (bytes)
system.membus.pkt_count_system.cpu.dcache.mem_side::system.mem_ctrls.port       538704                       # Packet count per connected master and slave (bytes)
system.membus.pkt_count_system.cpu.dcache.mem_side::system.acctest.mem2cls.slave       754886                       # Packet count per connected master and slave (bytes)
system.membus.pkt_count_system.cpu.dcache.mem_side::total      1365364                       # Packet count per connected master and slave (bytes)
system.membus.pkt_count_system.acctest.coherency_bus.master[0]::system.mem_ctrls.port      6240690                       # Packet count per connected master and slave (bytes)
system.membus.pkt_count_system.acctest.coherency_bus.master[0]::total      6240690                       # Packet count per connected master and slave (bytes)
system.membus.pkt_count::total                9391132                       # Packet count per connected master and slave (bytes)
system.membus.pkt_size_system.cpu.icache.mem_side::system.realview.bootmem.port     57122496                       # Cumulative packet size per connected master and slave (bytes)
system.membus.pkt_size_system.cpu.icache.mem_side::total     57122496                       # Cumulative packet size per connected master and slave (bytes)
system.membus.pkt_size_system.cpu.dcache.mem_side::system.realview.bootmem.port       143548                       # Cumulative packet size per connected master and slave (bytes)
system.membus.pkt_size_system.cpu.dcache.mem_side::system.mem_ctrls.port      1054426                       # Cumulative packet size per connected master and slave (bytes)
system.membus.pkt_size_system.cpu.dcache.mem_side::system.acctest.mem2cls.slave       377443                       # Cumulative packet size per connected master and slave (bytes)
system.membus.pkt_size_system.cpu.dcache.mem_side::total      1575417                       # Cumulative packet size per connected master and slave (bytes)
system.membus.pkt_size_system.acctest.coherency_bus.master[0]::system.mem_ctrls.port    103651504                       # Cumulative packet size per connected master and slave (bytes)
system.membus.pkt_size_system.acctest.coherency_bus.master[0]::total    103651504                       # Cumulative packet size per connected master and slave (bytes)
system.membus.pkt_size::total               162349417                       # Cumulative packet size per connected master and slave (bytes)
system.membus.snoops                                0                       # Total snoops (count)
system.membus.snoopTraffic                          0                       # Total snoop traffic (bytes)
system.membus.snoop_fanout::samples           5331738                       # Request fanout histogram
system.membus.snoop_fanout::mean                    0                       # Request fanout histogram
system.membus.snoop_fanout::stdev                   0                       # Request fanout histogram
system.membus.snoop_fanout::underflows              0      0.00%      0.00% # Request fanout histogram
system.membus.snoop_fanout::0                 5331738    100.00%    100.00% # Request fanout histogram
system.membus.snoop_fanout::1                       0      0.00%    100.00% # Request fanout histogram
system.membus.snoop_fanout::2                       0      0.00%    100.00% # Request fanout histogram
system.membus.snoop_fanout::3                       0      0.00%    100.00% # Request fanout histogram
system.membus.snoop_fanout::4                       0      0.00%    100.00% # Request fanout histogram
system.membus.snoop_fanout::overflows               0      0.00%    100.00% # Request fanout histogram
system.membus.snoop_fanout::min_value               0                       # Request fanout histogram
system.membus.snoop_fanout::max_value               0                       # Request fanout histogram
system.membus.snoop_fanout::total             5331738                       # Request fanout histogram
system.membus.reqLayer6.occupancy          7362777625                       # Layer occupancy (ticks)
system.membus.reqLayer6.utilization              11.6                       # Layer utilization (%)
system.membus.reqLayer7.occupancy           592433750                       # Layer occupancy (ticks)
system.membus.reqLayer7.utilization               0.9                       # Layer utilization (%)
system.membus.reqLayer1.occupancy          1496481114                       # Layer occupancy (ticks)
system.membus.reqLayer1.utilization               2.4                       # Layer utilization (%)
system.membus.badaddr_responder.pwrStateResidencyTicks::UNDEFINED 343976843750                       # Cumulative time (in ticks) in various power states
system.membus.respLayer4.occupancy         1262854875                       # Layer occupancy (ticks)
system.membus.respLayer4.utilization              2.0                       # Layer utilization (%)
system.membus.respLayer7.occupancy         8746607875                       # Layer occupancy (ticks)
system.membus.respLayer7.utilization             13.8                       # Layer utilization (%)
system.membus.respLayer3.occupancy         4462695000                       # Layer occupancy (ticks)
system.membus.respLayer3.utilization              7.0                       # Layer utilization (%)
system.acctest.harris_non_max0_spm.pwrStateResidencyTicks::UNDEFINED 343976843750                       # Cumulative time (in ticks) in various power states
system.acctest.harris_non_max0_spm.bytes_read::.acctest.harris_non_max0.system.acctest.harris_non_max0       262144                       # Number of bytes read from this memory
system.acctest.harris_non_max0_spm.bytes_read::.acctest.harris_non_max0_dma        65536                       # Number of bytes read from this memory
system.acctest.harris_non_max0_spm.bytes_read::total       327680                       # Number of bytes read from this memory
system.acctest.harris_non_max0_spm.bytes_written::.acctest.harris_non_max0.system.acctest.harris_non_max0        65536                       # Number of bytes written to this memory
system.acctest.harris_non_max0_spm.bytes_written::.acctest.harris_non_max0_dma       262144                       # Number of bytes written to this memory
system.acctest.harris_non_max0_spm.bytes_written::total       327680                       # Number of bytes written to this memory
system.acctest.harris_non_max0_spm.num_reads::.acctest.harris_non_max0.system.acctest.harris_non_max0        65536                       # Number of read requests responded to by this memory
system.acctest.harris_non_max0_spm.num_reads::.acctest.harris_non_max0_dma         2048                       # Number of read requests responded to by this memory
system.acctest.harris_non_max0_spm.num_reads::total        67584                       # Number of read requests responded to by this memory
system.acctest.harris_non_max0_spm.num_writes::.acctest.harris_non_max0.system.acctest.harris_non_max0        65536                       # Number of write requests responded to by this memory
system.acctest.harris_non_max0_spm.num_writes::.acctest.harris_non_max0_dma         8192                       # Number of write requests responded to by this memory
system.acctest.harris_non_max0_spm.num_writes::total        73728                       # Number of write requests responded to by this memory
system.acctest.harris_non_max0_spm.bw_read::.acctest.harris_non_max0.system.acctest.harris_non_max0      4127351                       # Total read bandwidth from this memory (bytes/s)
system.acctest.harris_non_max0_spm.bw_read::.acctest.harris_non_max0_dma      1031838                       # Total read bandwidth from this memory (bytes/s)
system.acctest.harris_non_max0_spm.bw_read::total      5159189                       # Total read bandwidth from this memory (bytes/s)
system.acctest.harris_non_max0_spm.bw_write::.acctest.harris_non_max0.system.acctest.harris_non_max0      1031838                       # Write bandwidth from this memory (bytes/s)
system.acctest.harris_non_max0_spm.bw_write::.acctest.harris_non_max0_dma      4127351                       # Write bandwidth from this memory (bytes/s)
system.acctest.harris_non_max0_spm.bw_write::total      5159189                       # Write bandwidth from this memory (bytes/s)
system.acctest.harris_non_max0_spm.bw_total::.acctest.harris_non_max0.system.acctest.harris_non_max0      5159189                       # Total bandwidth to/from this memory (bytes/s)
system.acctest.harris_non_max0_spm.bw_total::.acctest.harris_non_max0_dma      5159189                       # Total bandwidth to/from this memory (bytes/s)
system.acctest.harris_non_max0_spm.bw_total::total     10318377                       # Total bandwidth to/from this memory (bytes/s)
system.acctest.elem_matrix2_spm.pwrStateResidencyTicks::UNDEFINED 343976843750                       # Cumulative time (in ticks) in various power states
system.acctest.elem_matrix2_spm.bytes_read::.acctest.convolution0_dma        65536                       # Number of bytes read from this memory
system.acctest.elem_matrix2_spm.bytes_read::.acctest.elem_matrix2.system.acctest.elem_matrix2     14221312                       # Number of bytes read from this memory
system.acctest.elem_matrix2_spm.bytes_read::.acctest.elem_matrix2_dma      7864320                       # Number of bytes read from this memory
system.acctest.elem_matrix2_spm.bytes_read::total     22151168                       # Number of bytes read from this memory
system.acctest.elem_matrix2_spm.bytes_written::.acctest.elem_matrix2.system.acctest.elem_matrix2      7929856                       # Number of bytes written to this memory
system.acctest.elem_matrix2_spm.bytes_written::.acctest.elem_matrix2_dma     14221312                       # Number of bytes written to this memory
system.acctest.elem_matrix2_spm.bytes_written::total     22151168                       # Number of bytes written to this memory
system.acctest.elem_matrix2_spm.num_reads::.acctest.convolution0_dma         2048                       # Number of read requests responded to by this memory
system.acctest.elem_matrix2_spm.num_reads::.acctest.elem_matrix2.system.acctest.elem_matrix2      3555328                       # Number of read requests responded to by this memory
system.acctest.elem_matrix2_spm.num_reads::.acctest.elem_matrix2_dma       245760                       # Number of read requests responded to by this memory
system.acctest.elem_matrix2_spm.num_reads::total      3803136                       # Number of read requests responded to by this memory
system.acctest.elem_matrix2_spm.num_writes::.acctest.elem_matrix2.system.acctest.elem_matrix2      1982464                       # Number of write requests responded to by this memory
system.acctest.elem_matrix2_spm.num_writes::.acctest.elem_matrix2_dma       444416                       # Number of write requests responded to by this memory
system.acctest.elem_matrix2_spm.num_writes::total      2426880                       # Number of write requests responded to by this memory
system.acctest.elem_matrix2_spm.bw_read::.acctest.convolution0_dma      1031838                       # Total read bandwidth from this memory (bytes/s)
system.acctest.elem_matrix2_spm.bw_read::.acctest.elem_matrix2.system.acctest.elem_matrix2    223908784                       # Total read bandwidth from this memory (bytes/s)
system.acctest.elem_matrix2_spm.bw_read::.acctest.elem_matrix2_dma    123820526                       # Total read bandwidth from this memory (bytes/s)
system.acctest.elem_matrix2_spm.bw_read::total    348761147                       # Total read bandwidth from this memory (bytes/s)
system.acctest.elem_matrix2_spm.bw_write::.acctest.elem_matrix2.system.acctest.elem_matrix2    124852363                       # Write bandwidth from this memory (bytes/s)
system.acctest.elem_matrix2_spm.bw_write::.acctest.elem_matrix2_dma    223908784                       # Write bandwidth from this memory (bytes/s)
system.acctest.elem_matrix2_spm.bw_write::total    348761147                       # Write bandwidth from this memory (bytes/s)
system.acctest.elem_matrix2_spm.bw_total::.acctest.convolution0_dma      1031838                       # Total bandwidth to/from this memory (bytes/s)
system.acctest.elem_matrix2_spm.bw_total::.acctest.elem_matrix2.system.acctest.elem_matrix2    348761147                       # Total bandwidth to/from this memory (bytes/s)
system.acctest.elem_matrix2_spm.bw_total::.acctest.elem_matrix2_dma    347729310                       # Total bandwidth to/from this memory (bytes/s)
system.acctest.elem_matrix2_spm.bw_total::total    697522295                       # Total bandwidth to/from this memory (bytes/s)
system.acctest.elem_matrix3_spm.pwrStateResidencyTicks::UNDEFINED 343976843750                       # Cumulative time (in ticks) in various power states
system.acctest.elem_matrix3_spm.bytes_read::.acctest.convolution1_dma        65536                       # Number of bytes read from this memory
system.acctest.elem_matrix3_spm.bytes_read::.acctest.elem_matrix3.system.acctest.elem_matrix3     14221312                       # Number of bytes read from this memory
system.acctest.elem_matrix3_spm.bytes_read::.acctest.elem_matrix3_dma      7864320                       # Number of bytes read from this memory
system.acctest.elem_matrix3_spm.bytes_read::total     22151168                       # Number of bytes read from this memory
system.acctest.elem_matrix3_spm.bytes_written::.acctest.elem_matrix3.system.acctest.elem_matrix3      7929856                       # Number of bytes written to this memory
system.acctest.elem_matrix3_spm.bytes_written::.acctest.elem_matrix3_dma     14221312                       # Number of bytes written to this memory
system.acctest.elem_matrix3_spm.bytes_written::total     22151168                       # Number of bytes written to this memory
system.acctest.elem_matrix3_spm.num_reads::.acctest.convolution1_dma         2048                       # Number of read requests responded to by this memory
system.acctest.elem_matrix3_spm.num_reads::.acctest.elem_matrix3.system.acctest.elem_matrix3      3555328                       # Number of read requests responded to by this memory
system.acctest.elem_matrix3_spm.num_reads::.acctest.elem_matrix3_dma       245760                       # Number of read requests responded to by this memory
system.acctest.elem_matrix3_spm.num_reads::total      3803136                       # Number of read requests responded to by this memory
system.acctest.elem_matrix3_spm.num_writes::.acctest.elem_matrix3.system.acctest.elem_matrix3      1982464                       # Number of write requests responded to by this memory
system.acctest.elem_matrix3_spm.num_writes::.acctest.elem_matrix3_dma       444416                       # Number of write requests responded to by this memory
system.acctest.elem_matrix3_spm.num_writes::total      2426880                       # Number of write requests responded to by this memory
system.acctest.elem_matrix3_spm.bw_read::.acctest.convolution1_dma      1031838                       # Total read bandwidth from this memory (bytes/s)
system.acctest.elem_matrix3_spm.bw_read::.acctest.elem_matrix3.system.acctest.elem_matrix3    223908784                       # Total read bandwidth from this memory (bytes/s)
system.acctest.elem_matrix3_spm.bw_read::.acctest.elem_matrix3_dma    123820526                       # Total read bandwidth from this memory (bytes/s)
system.acctest.elem_matrix3_spm.bw_read::total    348761147                       # Total read bandwidth from this memory (bytes/s)
system.acctest.elem_matrix3_spm.bw_write::.acctest.elem_matrix3.system.acctest.elem_matrix3    124852363                       # Write bandwidth from this memory (bytes/s)
system.acctest.elem_matrix3_spm.bw_write::.acctest.elem_matrix3_dma    223908784                       # Write bandwidth from this memory (bytes/s)
system.acctest.elem_matrix3_spm.bw_write::total    348761147                       # Write bandwidth from this memory (bytes/s)
system.acctest.elem_matrix3_spm.bw_total::.acctest.convolution1_dma      1031838                       # Total bandwidth to/from this memory (bytes/s)
system.acctest.elem_matrix3_spm.bw_total::.acctest.elem_matrix3.system.acctest.elem_matrix3    348761147                       # Total bandwidth to/from this memory (bytes/s)
system.acctest.elem_matrix3_spm.bw_total::.acctest.elem_matrix3_dma    347729310                       # Total bandwidth to/from this memory (bytes/s)
system.acctest.elem_matrix3_spm.bw_total::total    697522295                       # Total bandwidth to/from this memory (bytes/s)
system.acctest.local_bus.pwrStateResidencyTicks::UNDEFINED 343976843750                       # Cumulative time (in ticks) in various power states
system.acctest.local_bus.trans_dist::ReadReq      1543165                       # Transaction distribution
system.acctest.local_bus.trans_dist::ReadResp      1543165                       # Transaction distribution
system.acctest.local_bus.trans_dist::WriteReq      2113362                       # Transaction distribution
system.acctest.local_bus.trans_dist::WriteResp      2113362                       # Transaction distribution
system.acctest.local_bus.pkt_count_system.acctest.mem2cls.master::system.acctest.canny_non_max0.pio         8964                       # Packet count per connected master and slave (bytes)
system.acctest.local_bus.pkt_count_system.acctest.mem2cls.master::system.acctest.canny_non_max0_dma.pio         4294                       # Packet count per connected master and slave (bytes)
system.acctest.local_bus.pkt_count_system.acctest.mem2cls.master::system.acctest.convolution0.pio        10380                       # Packet count per connected master and slave (bytes)
system.acctest.local_bus.pkt_count_system.acctest.mem2cls.master::system.acctest.convolution0_dma.pio        12210                       # Packet count per connected master and slave (bytes)
system.acctest.local_bus.pkt_count_system.acctest.mem2cls.master::system.acctest.convolution1.pio        10348                       # Packet count per connected master and slave (bytes)
system.acctest.local_bus.pkt_count_system.acctest.mem2cls.master::system.acctest.convolution1_dma.pio        12224                       # Packet count per connected master and slave (bytes)
system.acctest.local_bus.pkt_count_system.acctest.mem2cls.master::system.acctest.edge_tracking0.pio         9020                       # Packet count per connected master and slave (bytes)
system.acctest.local_bus.pkt_count_system.acctest.mem2cls.master::system.acctest.edge_tracking0_dma.pio         2050                       # Packet count per connected master and slave (bytes)
system.acctest.local_bus.pkt_count_system.acctest.mem2cls.master::system.acctest.elem_matrix0.pio        20516                       # Packet count per connected master and slave (bytes)
system.acctest.local_bus.pkt_count_system.acctest.mem2cls.master::system.acctest.elem_matrix0_dma.pio       165196                       # Packet count per connected master and slave (bytes)
system.acctest.local_bus.pkt_count_system.acctest.mem2cls.master::system.acctest.elem_matrix1.pio        18568                       # Packet count per connected master and slave (bytes)
system.acctest.local_bus.pkt_count_system.acctest.mem2cls.master::system.acctest.elem_matrix1_dma.pio       150240                       # Packet count per connected master and slave (bytes)
system.acctest.local_bus.pkt_count_system.acctest.mem2cls.master::system.acctest.elem_matrix2.pio        17034                       # Packet count per connected master and slave (bytes)
system.acctest.local_bus.pkt_count_system.acctest.mem2cls.master::system.acctest.elem_matrix2_dma.pio       131880                       # Packet count per connected master and slave (bytes)
system.acctest.local_bus.pkt_count_system.acctest.mem2cls.master::system.acctest.elem_matrix3.pio        16792                       # Packet count per connected master and slave (bytes)
system.acctest.local_bus.pkt_count_system.acctest.mem2cls.master::system.acctest.elem_matrix3_dma.pio       131890                       # Packet count per connected master and slave (bytes)
system.acctest.local_bus.pkt_count_system.acctest.mem2cls.master::system.acctest.grayscale0.pio         7884                       # Packet count per connected master and slave (bytes)
system.acctest.local_bus.pkt_count_system.acctest.mem2cls.master::system.acctest.grayscale0_dma.pio         4658                       # Packet count per connected master and slave (bytes)
system.acctest.local_bus.pkt_count_system.acctest.mem2cls.master::system.acctest.harris_non_max0.pio         7788                       # Packet count per connected master and slave (bytes)
system.acctest.local_bus.pkt_count_system.acctest.mem2cls.master::system.acctest.harris_non_max0_dma.pio         1944                       # Packet count per connected master and slave (bytes)
system.acctest.local_bus.pkt_count_system.acctest.mem2cls.master::system.acctest.isp0.pio         7988                       # Packet count per connected master and slave (bytes)
system.acctest.local_bus.pkt_count_system.acctest.mem2cls.master::system.acctest.isp0_dma.pio         3018                       # Packet count per connected master and slave (bytes)
system.acctest.local_bus.pkt_count_system.acctest.mem2cls.master::total       754886                       # Packet count per connected master and slave (bytes)
system.acctest.local_bus.pkt_count_system.acctest.canny_non_max0_dma.dma::system.acctest.canny_non_max0_spm.port        45056                       # Packet count per connected master and slave (bytes)
system.acctest.local_bus.pkt_count_system.acctest.canny_non_max0_dma.dma::total        45056                       # Packet count per connected master and slave (bytes)
system.acctest.local_bus.pkt_count_system.acctest.convolution0_dma.dma::system.acctest.convolution0_spm.port       127072                       # Packet count per connected master and slave (bytes)
system.acctest.local_bus.pkt_count_system.acctest.convolution0_dma.dma::system.acctest.elem_matrix2_spm.port         4096                       # Packet count per connected master and slave (bytes)
system.acctest.local_bus.pkt_count_system.acctest.convolution0_dma.dma::system.acctest.grayscale0_spm.port         4096                       # Packet count per connected master and slave (bytes)
system.acctest.local_bus.pkt_count_system.acctest.convolution0_dma.dma::total       135264                       # Packet count per connected master and slave (bytes)
system.acctest.local_bus.pkt_count_system.acctest.convolution1_dma.dma::system.acctest.convolution1_spm.port       127072                       # Packet count per connected master and slave (bytes)
system.acctest.local_bus.pkt_count_system.acctest.convolution1_dma.dma::system.acctest.elem_matrix3_spm.port         4096                       # Packet count per connected master and slave (bytes)
system.acctest.local_bus.pkt_count_system.acctest.convolution1_dma.dma::system.acctest.grayscale0_spm.port         4096                       # Packet count per connected master and slave (bytes)
system.acctest.local_bus.pkt_count_system.acctest.convolution1_dma.dma::total       135264                       # Packet count per connected master and slave (bytes)
system.acctest.local_bus.pkt_count_system.acctest.edge_tracking0_dma.dma::system.acctest.canny_non_max0_spm.port         4096                       # Packet count per connected master and slave (bytes)
system.acctest.local_bus.pkt_count_system.acctest.edge_tracking0_dma.dma::system.acctest.edge_tracking0_spm.port        20480                       # Packet count per connected master and slave (bytes)
system.acctest.local_bus.pkt_count_system.acctest.edge_tracking0_dma.dma::total        24576                       # Packet count per connected master and slave (bytes)
system.acctest.local_bus.pkt_count_system.acctest.elem_matrix0_dma.dma::system.acctest.convolution0_spm.port         4096                       # Packet count per connected master and slave (bytes)
system.acctest.local_bus.pkt_count_system.acctest.elem_matrix0_dma.dma::system.acctest.elem_matrix0_spm.port      1753096                       # Packet count per connected master and slave (bytes)
system.acctest.local_bus.pkt_count_system.acctest.elem_matrix0_dma.dma::total      1757192                       # Packet count per connected master and slave (bytes)
system.acctest.local_bus.pkt_count_system.acctest.elem_matrix1_dma.dma::system.acctest.convolution1_spm.port         4096                       # Packet count per connected master and slave (bytes)
system.acctest.local_bus.pkt_count_system.acctest.elem_matrix1_dma.dma::system.acctest.elem_matrix1_spm.port      1581056                       # Packet count per connected master and slave (bytes)
system.acctest.local_bus.pkt_count_system.acctest.elem_matrix1_dma.dma::total      1585152                       # Packet count per connected master and slave (bytes)
system.acctest.local_bus.pkt_count_system.acctest.elem_matrix2_dma.dma::system.acctest.elem_matrix2_spm.port      1380352                       # Packet count per connected master and slave (bytes)
system.acctest.local_bus.pkt_count_system.acctest.elem_matrix2_dma.dma::total      1380352                       # Packet count per connected master and slave (bytes)
system.acctest.local_bus.pkt_count_system.acctest.elem_matrix3_dma.dma::system.acctest.elem_matrix3_spm.port      1380352                       # Packet count per connected master and slave (bytes)
system.acctest.local_bus.pkt_count_system.acctest.elem_matrix3_dma.dma::total      1380352                       # Packet count per connected master and slave (bytes)
system.acctest.local_bus.pkt_count_system.acctest.grayscale0_dma.dma::system.acctest.grayscale0_spm.port        53248                       # Packet count per connected master and slave (bytes)
system.acctest.local_bus.pkt_count_system.acctest.grayscale0_dma.dma::system.acctest.isp0_spm.port         3072                       # Packet count per connected master and slave (bytes)
system.acctest.local_bus.pkt_count_system.acctest.grayscale0_dma.dma::total        56320                       # Packet count per connected master and slave (bytes)
system.acctest.local_bus.pkt_count_system.acctest.harris_non_max0_dma.dma::system.acctest.elem_matrix0_spm.port         4096                       # Packet count per connected master and slave (bytes)
system.acctest.local_bus.pkt_count_system.acctest.harris_non_max0_dma.dma::system.acctest.elem_matrix1_spm.port         4096                       # Packet count per connected master and slave (bytes)
system.acctest.local_bus.pkt_count_system.acctest.harris_non_max0_dma.dma::system.acctest.harris_non_max0_spm.port        20480                       # Packet count per connected master and slave (bytes)
system.acctest.local_bus.pkt_count_system.acctest.harris_non_max0_dma.dma::total        28672                       # Packet count per connected master and slave (bytes)
system.acctest.local_bus.pkt_count_system.acctest.isp0_dma.dma::system.acctest.isp0_spm.port        29968                       # Packet count per connected master and slave (bytes)
system.acctest.local_bus.pkt_count_system.acctest.isp0_dma.dma::total        29968                       # Packet count per connected master and slave (bytes)
system.acctest.local_bus.pkt_count::total      7313054                       # Packet count per connected master and slave (bytes)
system.acctest.local_bus.pkt_size_system.acctest.mem2cls.master::system.acctest.canny_non_max0.pio         4482                       # Cumulative packet size per connected master and slave (bytes)
system.acctest.local_bus.pkt_size_system.acctest.mem2cls.master::system.acctest.canny_non_max0_dma.pio         2147                       # Cumulative packet size per connected master and slave (bytes)
system.acctest.local_bus.pkt_size_system.acctest.mem2cls.master::system.acctest.convolution0.pio         5190                       # Cumulative packet size per connected master and slave (bytes)
system.acctest.local_bus.pkt_size_system.acctest.mem2cls.master::system.acctest.convolution0_dma.pio         6105                       # Cumulative packet size per connected master and slave (bytes)
system.acctest.local_bus.pkt_size_system.acctest.mem2cls.master::system.acctest.convolution1.pio         5174                       # Cumulative packet size per connected master and slave (bytes)
system.acctest.local_bus.pkt_size_system.acctest.mem2cls.master::system.acctest.convolution1_dma.pio         6112                       # Cumulative packet size per connected master and slave (bytes)
system.acctest.local_bus.pkt_size_system.acctest.mem2cls.master::system.acctest.edge_tracking0.pio         4510                       # Cumulative packet size per connected master and slave (bytes)
system.acctest.local_bus.pkt_size_system.acctest.mem2cls.master::system.acctest.edge_tracking0_dma.pio         1025                       # Cumulative packet size per connected master and slave (bytes)
system.acctest.local_bus.pkt_size_system.acctest.mem2cls.master::system.acctest.elem_matrix0.pio        10258                       # Cumulative packet size per connected master and slave (bytes)
system.acctest.local_bus.pkt_size_system.acctest.mem2cls.master::system.acctest.elem_matrix0_dma.pio        82598                       # Cumulative packet size per connected master and slave (bytes)
system.acctest.local_bus.pkt_size_system.acctest.mem2cls.master::system.acctest.elem_matrix1.pio         9284                       # Cumulative packet size per connected master and slave (bytes)
system.acctest.local_bus.pkt_size_system.acctest.mem2cls.master::system.acctest.elem_matrix1_dma.pio        75120                       # Cumulative packet size per connected master and slave (bytes)
system.acctest.local_bus.pkt_size_system.acctest.mem2cls.master::system.acctest.elem_matrix2.pio         8517                       # Cumulative packet size per connected master and slave (bytes)
system.acctest.local_bus.pkt_size_system.acctest.mem2cls.master::system.acctest.elem_matrix2_dma.pio        65940                       # Cumulative packet size per connected master and slave (bytes)
system.acctest.local_bus.pkt_size_system.acctest.mem2cls.master::system.acctest.elem_matrix3.pio         8396                       # Cumulative packet size per connected master and slave (bytes)
system.acctest.local_bus.pkt_size_system.acctest.mem2cls.master::system.acctest.elem_matrix3_dma.pio        65945                       # Cumulative packet size per connected master and slave (bytes)
system.acctest.local_bus.pkt_size_system.acctest.mem2cls.master::system.acctest.grayscale0.pio         3942                       # Cumulative packet size per connected master and slave (bytes)
system.acctest.local_bus.pkt_size_system.acctest.mem2cls.master::system.acctest.grayscale0_dma.pio         2329                       # Cumulative packet size per connected master and slave (bytes)
system.acctest.local_bus.pkt_size_system.acctest.mem2cls.master::system.acctest.harris_non_max0.pio         3894                       # Cumulative packet size per connected master and slave (bytes)
system.acctest.local_bus.pkt_size_system.acctest.mem2cls.master::system.acctest.harris_non_max0_dma.pio          972                       # Cumulative packet size per connected master and slave (bytes)
system.acctest.local_bus.pkt_size_system.acctest.mem2cls.master::system.acctest.isp0.pio         3994                       # Cumulative packet size per connected master and slave (bytes)
system.acctest.local_bus.pkt_size_system.acctest.mem2cls.master::system.acctest.isp0_dma.pio         1509                       # Cumulative packet size per connected master and slave (bytes)
system.acctest.local_bus.pkt_size_system.acctest.mem2cls.master::total       377443                       # Cumulative packet size per connected master and slave (bytes)
system.acctest.local_bus.pkt_size_system.acctest.canny_non_max0_dma.dma::system.acctest.canny_non_max0_spm.port       720896                       # Cumulative packet size per connected master and slave (bytes)
system.acctest.local_bus.pkt_size_system.acctest.canny_non_max0_dma.dma::total       720896                       # Cumulative packet size per connected master and slave (bytes)
system.acctest.local_bus.pkt_size_system.acctest.convolution0_dma.dma::system.acctest.convolution0_spm.port      2032704                       # Cumulative packet size per connected master and slave (bytes)
system.acctest.local_bus.pkt_size_system.acctest.convolution0_dma.dma::system.acctest.elem_matrix2_spm.port        65536                       # Cumulative packet size per connected master and slave (bytes)
system.acctest.local_bus.pkt_size_system.acctest.convolution0_dma.dma::system.acctest.grayscale0_spm.port        65536                       # Cumulative packet size per connected master and slave (bytes)
system.acctest.local_bus.pkt_size_system.acctest.convolution0_dma.dma::total      2163776                       # Cumulative packet size per connected master and slave (bytes)
system.acctest.local_bus.pkt_size_system.acctest.convolution1_dma.dma::system.acctest.convolution1_spm.port      2032704                       # Cumulative packet size per connected master and slave (bytes)
system.acctest.local_bus.pkt_size_system.acctest.convolution1_dma.dma::system.acctest.elem_matrix3_spm.port        65536                       # Cumulative packet size per connected master and slave (bytes)
system.acctest.local_bus.pkt_size_system.acctest.convolution1_dma.dma::system.acctest.grayscale0_spm.port        65536                       # Cumulative packet size per connected master and slave (bytes)
system.acctest.local_bus.pkt_size_system.acctest.convolution1_dma.dma::total      2163776                       # Cumulative packet size per connected master and slave (bytes)
system.acctest.local_bus.pkt_size_system.acctest.edge_tracking0_dma.dma::system.acctest.canny_non_max0_spm.port        65536                       # Cumulative packet size per connected master and slave (bytes)
system.acctest.local_bus.pkt_size_system.acctest.edge_tracking0_dma.dma::system.acctest.edge_tracking0_spm.port       327680                       # Cumulative packet size per connected master and slave (bytes)
system.acctest.local_bus.pkt_size_system.acctest.edge_tracking0_dma.dma::total       393216                       # Cumulative packet size per connected master and slave (bytes)
system.acctest.local_bus.pkt_size_system.acctest.elem_matrix0_dma.dma::system.acctest.convolution0_spm.port        65536                       # Cumulative packet size per connected master and slave (bytes)
system.acctest.local_bus.pkt_size_system.acctest.elem_matrix0_dma.dma::system.acctest.elem_matrix0_spm.port     28049424                       # Cumulative packet size per connected master and slave (bytes)
system.acctest.local_bus.pkt_size_system.acctest.elem_matrix0_dma.dma::total     28114960                       # Cumulative packet size per connected master and slave (bytes)
system.acctest.local_bus.pkt_size_system.acctest.elem_matrix1_dma.dma::system.acctest.convolution1_spm.port        65536                       # Cumulative packet size per connected master and slave (bytes)
system.acctest.local_bus.pkt_size_system.acctest.elem_matrix1_dma.dma::system.acctest.elem_matrix1_spm.port     25296896                       # Cumulative packet size per connected master and slave (bytes)
system.acctest.local_bus.pkt_size_system.acctest.elem_matrix1_dma.dma::total     25362432                       # Cumulative packet size per connected master and slave (bytes)
system.acctest.local_bus.pkt_size_system.acctest.elem_matrix2_dma.dma::system.acctest.elem_matrix2_spm.port     22085632                       # Cumulative packet size per connected master and slave (bytes)
system.acctest.local_bus.pkt_size_system.acctest.elem_matrix2_dma.dma::total     22085632                       # Cumulative packet size per connected master and slave (bytes)
system.acctest.local_bus.pkt_size_system.acctest.elem_matrix3_dma.dma::system.acctest.elem_matrix3_spm.port     22085632                       # Cumulative packet size per connected master and slave (bytes)
system.acctest.local_bus.pkt_size_system.acctest.elem_matrix3_dma.dma::total     22085632                       # Cumulative packet size per connected master and slave (bytes)
system.acctest.local_bus.pkt_size_system.acctest.grayscale0_dma.dma::system.acctest.grayscale0_spm.port       851968                       # Cumulative packet size per connected master and slave (bytes)
system.acctest.local_bus.pkt_size_system.acctest.grayscale0_dma.dma::system.acctest.isp0_spm.port        49152                       # Cumulative packet size per connected master and slave (bytes)
system.acctest.local_bus.pkt_size_system.acctest.grayscale0_dma.dma::total       901120                       # Cumulative packet size per connected master and slave (bytes)
system.acctest.local_bus.pkt_size_system.acctest.harris_non_max0_dma.dma::system.acctest.elem_matrix0_spm.port        65536                       # Cumulative packet size per connected master and slave (bytes)
system.acctest.local_bus.pkt_size_system.acctest.harris_non_max0_dma.dma::system.acctest.elem_matrix1_spm.port        65536                       # Cumulative packet size per connected master and slave (bytes)
system.acctest.local_bus.pkt_size_system.acctest.harris_non_max0_dma.dma::system.acctest.harris_non_max0_spm.port       327680                       # Cumulative packet size per connected master and slave (bytes)
system.acctest.local_bus.pkt_size_system.acctest.harris_non_max0_dma.dma::total       458752                       # Cumulative packet size per connected master and slave (bytes)
system.acctest.local_bus.pkt_size_system.acctest.isp0_dma.dma::system.acctest.isp0_spm.port       479264                       # Cumulative packet size per connected master and slave (bytes)
system.acctest.local_bus.pkt_size_system.acctest.isp0_dma.dma::total       479264                       # Cumulative packet size per connected master and slave (bytes)
system.acctest.local_bus.pkt_size::total    105306899                       # Cumulative packet size per connected master and slave (bytes)
system.acctest.local_bus.respLayer18.occupancy     60672000                       # Layer occupancy (ticks)
system.acctest.local_bus.respLayer18.utilization          0.1                       # Layer utilization (%)
system.acctest.local_bus.respLayer10.occupancy   1533956000                       # Layer occupancy (ticks)
system.acctest.local_bus.respLayer10.utilization          2.4                       # Layer utilization (%)
system.acctest.local_bus.respLayer12.occupancy   1357824000                       # Layer occupancy (ticks)
system.acctest.local_bus.respLayer12.utilization          2.1                       # Layer utilization (%)
system.acctest.local_bus.respLayer14.occupancy   1181696000                       # Layer occupancy (ticks)
system.acctest.local_bus.respLayer14.utilization          1.9                       # Layer utilization (%)
system.acctest.local_bus.respLayer16.occupancy   1181696000                       # Layer occupancy (ticks)
system.acctest.local_bus.respLayer16.utilization          1.9                       # Layer utilization (%)
system.acctest.local_bus.reqLayer4.occupancy    166374216                       # Layer occupancy (ticks)
system.acctest.local_bus.reqLayer4.utilization          0.3                       # Layer utilization (%)
system.acctest.local_bus.reqLayer5.occupancy      9585500                       # Layer occupancy (ticks)
system.acctest.local_bus.reqLayer5.utilization          0.0                       # Layer utilization (%)
system.acctest.local_bus.reqLayer6.occupancy      8082125                       # Layer occupancy (ticks)
system.acctest.local_bus.reqLayer6.utilization          0.0                       # Layer utilization (%)
system.acctest.local_bus.reqLayer7.occupancy    165597136                       # Layer occupancy (ticks)
system.acctest.local_bus.reqLayer7.utilization          0.3                       # Layer utilization (%)
system.acctest.local_bus.reqLayer0.occupancy      6724875                       # Layer occupancy (ticks)
system.acctest.local_bus.reqLayer0.utilization          0.0                       # Layer utilization (%)
system.acctest.local_bus.reqLayer1.occupancy     67249429                       # Layer occupancy (ticks)
system.acctest.local_bus.reqLayer1.utilization          0.1                       # Layer utilization (%)
system.acctest.local_bus.reqLayer2.occupancy      3187750                       # Layer occupancy (ticks)
system.acctest.local_bus.reqLayer2.utilization          0.0                       # Layer utilization (%)
system.acctest.local_bus.reqLayer3.occupancy      8503250                       # Layer occupancy (ticks)
system.acctest.local_bus.reqLayer3.utilization          0.0                       # Layer utilization (%)
system.acctest.local_bus.reqLayer8.occupancy      9578375                       # Layer occupancy (ticks)
system.acctest.local_bus.reqLayer8.utilization          0.0                       # Layer utilization (%)
system.acctest.local_bus.reqLayer9.occupancy      8439250                       # Layer occupancy (ticks)
system.acctest.local_bus.reqLayer9.utilization          0.0                       # Layer utilization (%)
system.acctest.local_bus.reqLayer30.occupancy      7111125                       # Layer occupancy (ticks)
system.acctest.local_bus.reqLayer30.utilization          0.0                       # Layer utilization (%)
system.acctest.local_bus.reqLayer31.occupancy     38209401                       # Layer occupancy (ticks)
system.acctest.local_bus.reqLayer31.utilization          0.1                       # Layer utilization (%)
system.acctest.local_bus.reqLayer32.occupancy      2432500                       # Layer occupancy (ticks)
system.acctest.local_bus.reqLayer32.utilization          0.0                       # Layer utilization (%)
system.acctest.local_bus.reqLayer18.occupancy     16115375                       # Layer occupancy (ticks)
system.acctest.local_bus.reqLayer18.utilization          0.0                       # Layer utilization (%)
system.acctest.local_bus.reqLayer19.occupancy   1854222066                       # Layer occupancy (ticks)
system.acctest.local_bus.reqLayer19.utilization          2.9                       # Layer utilization (%)
system.acctest.local_bus.reqLayer16.occupancy   2121973143                       # Layer occupancy (ticks)
system.acctest.local_bus.reqLayer16.utilization          3.3                       # Layer utilization (%)
system.acctest.local_bus.reqLayer17.occupancy    112181375                       # Layer occupancy (ticks)
system.acctest.local_bus.reqLayer17.utilization          0.2                       # Layer utilization (%)
system.acctest.local_bus.reqLayer14.occupancy    123594625                       # Layer occupancy (ticks)
system.acctest.local_bus.reqLayer14.utilization          0.2                       # Layer utilization (%)
system.acctest.local_bus.reqLayer15.occupancy     17244500                       # Layer occupancy (ticks)
system.acctest.local_bus.reqLayer15.utilization          0.0                       # Layer utilization (%)
system.acctest.local_bus.reqLayer12.occupancy     19840375                       # Layer occupancy (ticks)
system.acctest.local_bus.reqLayer12.utilization          0.0                       # Layer utilization (%)
system.acctest.local_bus.reqLayer13.occupancy   2330523875                       # Layer occupancy (ticks)
system.acctest.local_bus.reqLayer13.utilization          3.7                       # Layer utilization (%)
system.acctest.local_bus.reqLayer10.occupancy     28724099                       # Layer occupancy (ticks)
system.acctest.local_bus.reqLayer10.utilization          0.0                       # Layer utilization (%)
system.acctest.local_bus.reqLayer11.occupancy      1615375                       # Layer occupancy (ticks)
system.acctest.local_bus.reqLayer11.utilization          0.0                       # Layer utilization (%)
system.acctest.local_bus.respLayer20.occupancy     26624000                       # Layer occupancy (ticks)
system.acctest.local_bus.respLayer20.utilization          0.0                       # Layer utilization (%)
system.acctest.local_bus.respLayer22.occupancy     41864000                       # Layer occupancy (ticks)
system.acctest.local_bus.respLayer22.utilization          0.1                       # Layer utilization (%)
system.acctest.local_bus.respLayer8.occupancy     20480000                       # Layer occupancy (ticks)
system.acctest.local_bus.respLayer8.utilization          0.0                       # Layer utilization (%)
system.acctest.local_bus.respLayer4.occupancy    137264000                       # Layer occupancy (ticks)
system.acctest.local_bus.respLayer4.utilization          0.2                       # Layer utilization (%)
system.acctest.local_bus.respLayer6.occupancy    137264000                       # Layer occupancy (ticks)
system.acctest.local_bus.respLayer6.utilization          0.2                       # Layer utilization (%)
system.acctest.local_bus.respLayer0.occupancy    706144000                       # Layer occupancy (ticks)
system.acctest.local_bus.respLayer0.utilization          1.1                       # Layer utilization (%)
system.acctest.local_bus.respLayer2.occupancy     34816000                       # Layer occupancy (ticks)
system.acctest.local_bus.respLayer2.utilization          0.1                       # Layer utilization (%)
system.acctest.local_bus.reqLayer27.occupancy      6843000                       # Layer occupancy (ticks)
system.acctest.local_bus.reqLayer27.utilization          0.0                       # Layer utilization (%)
system.acctest.local_bus.reqLayer26.occupancy      3523750                       # Layer occupancy (ticks)
system.acctest.local_bus.reqLayer26.utilization          0.0                       # Layer utilization (%)
system.acctest.local_bus.reqLayer25.occupancy     74397715                       # Layer occupancy (ticks)
system.acctest.local_bus.reqLayer25.utilization          0.1                       # Layer utilization (%)
system.acctest.local_bus.reqLayer24.occupancy      7045375                       # Layer occupancy (ticks)
system.acctest.local_bus.reqLayer24.utilization          0.0                       # Layer utilization (%)
system.acctest.local_bus.reqLayer23.occupancy     98463000                       # Layer occupancy (ticks)
system.acctest.local_bus.reqLayer23.utilization          0.2                       # Layer utilization (%)
system.acctest.local_bus.reqLayer22.occupancy   1857550066                       # Layer occupancy (ticks)
system.acctest.local_bus.reqLayer22.utilization          2.9                       # Layer utilization (%)
system.acctest.local_bus.reqLayer21.occupancy     16031500                       # Layer occupancy (ticks)
system.acctest.local_bus.reqLayer21.utilization          0.0                       # Layer utilization (%)
system.acctest.local_bus.reqLayer20.occupancy     98418750                       # Layer occupancy (ticks)
system.acctest.local_bus.reqLayer20.utilization          0.2                       # Layer utilization (%)
system.acctest.local_bus.reqLayer29.occupancy      1538500                       # Layer occupancy (ticks)
system.acctest.local_bus.reqLayer29.utilization          0.0                       # Layer utilization (%)
system.acctest.local_bus.reqLayer28.occupancy     28596474                       # Layer occupancy (ticks)
system.acctest.local_bus.reqLayer28.utilization          0.0                       # Layer utilization (%)
system.acctest.isp0.pwrStateResidencyTicks::UNDEFINED 343976843750                       # Cumulative time (in ticks) in various power states
system.acctest.edge_tracking0.pwrStateResidencyTicks::UNDEFINED 343976843750                       # Cumulative time (in ticks) in various power states
system.acctest.grayscale0_spm.pwrStateResidencyTicks::UNDEFINED 343976843750                       # Cumulative time (in ticks) in various power states
system.acctest.grayscale0_spm.bytes_read::.acctest.convolution0_dma        65536                       # Number of bytes read from this memory
[...]
system.mem_ctrls.masterReadAccesses::.acctest.grayscale0_dma        15360                       # Per-master read serviced memory accesses
system.mem_ctrls.masterReadAccesses::.acctest.harris_non_max0_dma         6144                       # Per-master read serviced memory accesses
system.mem_ctrls.masterReadAccesses::.acctest.isp0_dma         5816                       # Per-master read serviced memory accesses
system.mem_ctrls.masterReadAccesses::.cpu.data       213792                       # Per-master read serviced memory accesses
system.mem_ctrls.masterWriteAccesses::.acctest.canny_non_max0_dma         8192                       # Per-master write serviced memory accesses
system.mem_ctrls.masterWriteAccesses::.acctest.convolution0_dma        41984                       # Per-master write serviced memory accesses
system.mem_ctrls.masterWriteAccesses::.acctest.convolution1_dma        41984                       # Per-master write serviced memory accesses
system.mem_ctrls.masterWriteAccesses::.acctest.edge_tracking0_dma         2816                       # Per-master write serviced memory accesses
system.mem_ctrls.masterWriteAccesses::.acctest.elem_matrix0_dma       463872                       # Per-master write serviced memory accesses
system.mem_ctrls.masterWriteAccesses::.acctest.elem_matrix1_dma       402432                       # Per-master write serviced memory accesses
system.mem_ctrls.masterWriteAccesses::.acctest.elem_matrix2_dma       353280                       # Per-master write serviced memory accesses
system.mem_ctrls.masterWriteAccesses::.acctest.elem_matrix3_dma       353280                       # Per-master write serviced memory accesses
system.mem_ctrls.masterWriteAccesses::.acctest.grayscale0_dma        19456                       # Per-master write serviced memory accesses
system.mem_ctrls.masterWriteAccesses::.acctest.harris_non_max0_dma         2816                       # Per-master write serviced memory accesses
system.mem_ctrls.masterWriteAccesses::.acctest.isp0_dma        15360                       # Per-master write serviced memory accesses
system.mem_ctrls.masterWriteAccesses::.cpu.data        56168                       # Per-master write serviced memory accesses
system.mem_ctrls.masterReadTotalLat::.acctest.canny_non_max0_dma   2759602000                       # Per-master read total memory access latency
system.mem_ctrls.masterReadTotalLat::.acctest.convolution0_dma   4961807000                       # Per-master read total memory access latency
system.mem_ctrls.masterReadTotalLat::.acctest.convolution1_dma   4951582000                       # Per-master read total memory access latency
system.mem_ctrls.masterReadTotalLat::.acctest.edge_tracking0_dma    960307750                       # Per-master read total memory access latency
system.mem_ctrls.masterReadTotalLat::.acctest.elem_matrix0_dma 100370083875                       # Per-master read total memory access latency
system.mem_ctrls.masterReadTotalLat::.acctest.elem_matrix1_dma  93700394625                       # Per-master read total memory access latency
system.mem_ctrls.masterReadTotalLat::.acctest.elem_matrix2_dma  83149373500                       # Per-master read total memory access latency
system.mem_ctrls.masterReadTotalLat::.acctest.elem_matrix3_dma  83072738375                       # Per-master read total memory access latency
system.mem_ctrls.masterReadTotalLat::.acctest.grayscale0_dma   1933638750                       # Per-master read total memory access latency
system.mem_ctrls.masterReadTotalLat::.acctest.harris_non_max0_dma    808545500                       # Per-master read total memory access latency
system.mem_ctrls.masterReadTotalLat::.acctest.isp0_dma    693973375                       # Per-master read total memory access latency
system.mem_ctrls.masterReadTotalLat::.cpu.data   6186713125                       # Per-master read total memory access latency
system.mem_ctrls.masterWriteTotalLat::.acctest.canny_non_max0_dma   4902980125                       # Per-master write total memory access latency
system.mem_ctrls.masterWriteTotalLat::.acctest.convolution0_dma  42518666500                       # Per-master write total memory access latency
system.mem_ctrls.masterWriteTotalLat::.acctest.convolution1_dma  73912498750                       # Per-master write total memory access latency
system.mem_ctrls.masterWriteTotalLat::.acctest.edge_tracking0_dma  15075102875                       # Per-master write total memory access latency
system.mem_ctrls.masterWriteTotalLat::.acctest.elem_matrix0_dma 410349234875                       # Per-master write total memory access latency
system.mem_ctrls.masterWriteTotalLat::.acctest.elem_matrix1_dma 306468670125                       # Per-master write total memory access latency
system.mem_ctrls.masterWriteTotalLat::.acctest.elem_matrix2_dma 264491395250                       # Per-master write total memory access latency
system.mem_ctrls.masterWriteTotalLat::.acctest.elem_matrix3_dma 259701388875                       # Per-master write total memory access latency
system.mem_ctrls.masterWriteTotalLat::.acctest.grayscale0_dma  20860477125                       # Per-master write total memory access latency
system.mem_ctrls.masterWriteTotalLat::.acctest.harris_non_max0_dma  13032379375                       # Per-master write total memory access latency
system.mem_ctrls.masterWriteTotalLat::.acctest.isp0_dma  11569890375                       # Per-master write total memory access latency
system.mem_ctrls.masterWriteTotalLat::.cpu.data 414237172375                       # Per-master write total memory access latency
system.mem_ctrls.masterReadAvgLat::.acctest.canny_non_max0_dma    122496.54                       # Per-master read average memory access latency
system.mem_ctrls.masterReadAvgLat::.acctest.convolution0_dma    124073.09                       # Per-master read average memory access latency
system.mem_ctrls.masterReadAvgLat::.acctest.convolution1_dma    123823.60                       # Per-master read average memory access latency
system.mem_ctrls.masterReadAvgLat::.acctest.edge_tracking0_dma    117225.07                       # Per-master read average memory access latency
system.mem_ctrls.masterReadAvgLat::.acctest.elem_matrix0_dma    127460.55                       # Per-master read average memory access latency
system.mem_ctrls.masterReadAvgLat::.acctest.elem_matrix1_dma    127978.03                       # Per-master read average memory access latency
system.mem_ctrls.masterReadAvgLat::.acctest.elem_matrix2_dma    128889.78                       # Per-master read average memory access latency
system.mem_ctrls.masterReadAvgLat::.acctest.elem_matrix3_dma    128770.99                       # Per-master read average memory access latency
system.mem_ctrls.masterReadAvgLat::.acctest.grayscale0_dma    125887.94                       # Per-master read average memory access latency
system.mem_ctrls.masterReadAvgLat::.acctest.harris_non_max0_dma    131599.20                       # Per-master read average memory access latency
system.mem_ctrls.masterReadAvgLat::.acctest.isp0_dma    119321.42                       # Per-master read average memory access latency
system.mem_ctrls.masterReadAvgLat::.cpu.data     28938.00                       # Per-master read average memory access latency
system.mem_ctrls.masterWriteAvgLat::.acctest.canny_non_max0_dma    598508.32                       # Per-master write average memory access latency
system.mem_ctrls.masterWriteAvgLat::.acctest.convolution0_dma   1012735.01                       # Per-master write average memory access latency
system.mem_ctrls.masterWriteAvgLat::.acctest.convolution1_dma   1760492.06                       # Per-master write average memory access latency
system.mem_ctrls.masterWriteAvgLat::.acctest.edge_tracking0_dma   5353374.60                       # Per-master write average memory access latency
system.mem_ctrls.masterWriteAvgLat::.acctest.elem_matrix0_dma    884617.38                       # Per-master write average memory access latency
system.mem_ctrls.masterWriteAvgLat::.acctest.elem_matrix1_dma    761541.50                       # Per-master write average memory access latency
system.mem_ctrls.masterWriteAvgLat::.acctest.elem_matrix2_dma    748673.56                       # Per-master write average memory access latency
system.mem_ctrls.masterWriteAvgLat::.acctest.elem_matrix3_dma    735114.89                       # Per-master write average memory access latency
system.mem_ctrls.masterWriteAvgLat::.acctest.grayscale0_dma   1072187.35                       # Per-master write average memory access latency
system.mem_ctrls.masterWriteAvgLat::.acctest.harris_non_max0_dma   4627975.63                       # Per-master write average memory access latency
system.mem_ctrls.masterWriteAvgLat::.acctest.isp0_dma    753248.07                       # Per-master write average memory access latency
system.mem_ctrls.masterWriteAvgLat::.cpu.data   7374967.46                       # Per-master write average memory access latency
system.mem_ctrls.pageHitRate                    92.62                       # Row buffer hit rate, read and write combined
system.mem_ctrls.rank0.actEnergy            573627600                       # Energy for activate commands per rank (pJ)
system.mem_ctrls.rank0.preEnergy         302333606.400042                       # Energy for precharge commands per rank (pJ)
system.mem_ctrls.rank0.readEnergy          3707123616                       # Energy for read commands per rank (pJ)
system.mem_ctrls.rank0.writeEnergy         1126008936                       # Energy for write commands per rank (pJ)
system.mem_ctrls.rank0.refreshEnergy        395608980                       # Energy for refresh commands per rank (pJ)
system.mem_ctrls.rank0.actBackEnergy     2551303753.500000                       # Energy for active background per rank (pJ)
system.mem_ctrls.rank0.preBackEnergy     197558332.799987                       # Energy for precharge background per rank (pJ)
system.mem_ctrls.rank0.actPowerDownEnergy            0                       # Energy for active power-down per rank (pJ)
system.mem_ctrls.rank0.prePowerDownEnergy            0                       # Energy for precharge power-down per rank (pJ)
system.mem_ctrls.rank0.selfRefreshEnergy            0                       # Energy for self refresh per rank (pJ)
system.mem_ctrls.rank0.totalEnergy       8853564824.700356                       # Total energy per rank (pJ)
system.mem_ctrls.rank0.averagePower        139.394510                       # Core power per rank (mW)
system.mem_ctrls.rank0.totalIdleTime                0                       # Total Idle time Per DRAM Rank
system.mem_ctrls.rank0.memoryStateTime::IDLE   4803966375                       # Time in different power states
system.mem_ctrls.rank0.memoryStateTime::REF   2127060000                       # Time in different power states
system.mem_ctrls.rank0.memoryStateTime::SREF            0                       # Time in different power states
system.mem_ctrls.rank0.memoryStateTime::PRE_PDN            0                       # Time in different power states
system.mem_ctrls.rank0.memoryStateTime::ACT  56583526000                       # Time in different power states
system.mem_ctrls.rank0.memoryStateTime::ACT_PDN            0                       # Time in different power states
system.iobus.pwrStateResidencyTicks::UNDEFINED 343977424375                       # Cumulative time (in ticks) in various power states
system.cpu_clk_domain.clock                       625                       # Clock period in ticks
system.cpu.pwrStateResidencyTicks::ON    343977424375                       # Cumulative time (in ticks) in various power states
system.cpu.icache.pwrStateResidencyTicks::UNDEFINED 343977424375                       # Cumulative time (in ticks) in various power states
system.cpu.icache.blocked_cycles::no_mshrs            0                       # number of cycles access was blocked
system.cpu.icache.blocked_cycles::no_targets            0                       # number of cycles access was blocked
system.cpu.icache.blocked::no_mshrs                 0                       # number of cycles access was blocked
system.cpu.icache.blocked::no_targets               0                       # number of cycles access was blocked
system.cpu.icache.avg_blocked_cycles::no_mshrs          nan                       # average number of cycles each access was blocked
system.cpu.icache.avg_blocked_cycles::no_targets          nan                       # average number of cycles each access was blocked
system.cpu.icache.overall_mshr_uncacheable_misses::.cpu.inst       892548                       # number of overall MSHR uncacheable misses
system.cpu.icache.overall_mshr_uncacheable_misses::total       892548                       # number of overall MSHR uncacheable misses
system.cpu.icache.overall_mshr_uncacheable_latency::.cpu.inst  37346192500                       # number of overall MSHR uncacheable cycles
system.cpu.icache.overall_mshr_uncacheable_latency::total  37346192500                       # number of overall MSHR uncacheable cycles
system.cpu.icache.overall_avg_mshr_uncacheable_latency::.cpu.inst 41842.223051                       # average overall mshr uncacheable latency
system.cpu.icache.overall_avg_mshr_uncacheable_latency::total 41842.223051                       # average overall mshr uncacheable latency
system.cpu.icache.replacements                      0                       # number of replacements
system.cpu.icache.ReadReq_mshr_uncacheable::.cpu.inst       892548                       # number of ReadReq MSHR uncacheable
system.cpu.icache.ReadReq_mshr_uncacheable::total       892548                       # number of ReadReq MSHR uncacheable
system.cpu.icache.ReadReq_mshr_uncacheable_latency::.cpu.inst  37346192500                       # number of ReadReq MSHR uncacheable cycles
system.cpu.icache.ReadReq_mshr_uncacheable_latency::total  37346192500                       # number of ReadReq MSHR uncacheable cycles
system.cpu.icache.ReadReq_avg_mshr_uncacheable_latency::.cpu.inst 41842.223051                       # average ReadReq mshr uncacheable latency
system.cpu.icache.ReadReq_avg_mshr_uncacheable_latency::total 41842.223051                       # average ReadReq mshr uncacheable latency
system.cpu.icache.tags.pwrStateResidencyTicks::UNDEFINED 343977424375                       # Cumulative time (in ticks) in various power states
system.cpu.icache.tags.tagsinuse                    0                       # Cycle average of tags in use
system.cpu.icache.tags.total_refs                   0                       # Total number of references to valid blocks.
system.cpu.icache.tags.sampled_refs                 0                       # Sample count of references to valid blocks.
system.cpu.icache.tags.avg_refs                   nan                       # Average number of references to valid blocks.
system.cpu.icache.tags.warmup_cycle                 0                       # Cycle when the warmup percentage was hit.
system.cpu.icache.tags.tag_accesses                 0                       # Number of tag accesses
system.cpu.icache.tags.data_accesses                0                       # Number of data accesses
system.cpu.dtb.walker.pwrStateResidencyTicks::UNDEFINED 343977424375                       # Cumulative time (in ticks) in various power states
system.cpu.dtb.stage2_mmu.stage2_tlb.walker.pwrStateResidencyTicks::UNDEFINED 343977424375                       # Cumulative time (in ticks) in various power states
system.cpu.dcache.pwrStateResidencyTicks::UNDEFINED 343977424375                       # Cumulative time (in ticks) in various power states
system.cpu.dcache.blocked_cycles::no_mshrs            0                       # number of cycles access was blocked
system.cpu.dcache.blocked_cycles::no_targets            0                       # number of cycles access was blocked
system.cpu.dcache.blocked::no_mshrs                 0                       # number of cycles access was blocked
system.cpu.dcache.blocked::no_targets               0                       # number of cycles access was blocked
system.cpu.dcache.avg_blocked_cycles::no_mshrs          nan                       # average number of cycles each access was blocked
system.cpu.dcache.avg_blocked_cycles::no_targets          nan                       # average number of cycles each access was blocked
system.cpu.dcache.overall_mshr_uncacheable_misses::.cpu.data       682692                       # number of overall MSHR uncacheable misses
system.cpu.dcache.overall_mshr_uncacheable_misses::total       682692                       # number of overall MSHR uncacheable misses
system.cpu.dcache.overall_mshr_uncacheable_latency::.cpu.data  53014384375                       # number of overall MSHR uncacheable cycles
system.cpu.dcache.overall_mshr_uncacheable_latency::total  53014384375                       # number of overall MSHR uncacheable cycles
system.cpu.dcache.overall_avg_mshr_uncacheable_latency::.cpu.data 77654.907887                       # average overall mshr uncacheable latency
system.cpu.dcache.overall_avg_mshr_uncacheable_latency::total 77654.907887                       # average overall mshr uncacheable latency
system.cpu.dcache.replacements                      0                       # number of replacements
system.cpu.dcache.ReadReq_mshr_uncacheable::.cpu.data       577782                       # number of ReadReq MSHR uncacheable
system.cpu.dcache.ReadReq_mshr_uncacheable::total       577782                       # number of ReadReq MSHR uncacheable
system.cpu.dcache.ReadReq_mshr_uncacheable_latency::.cpu.data  53014384375                       # number of ReadReq MSHR uncacheable cycles
system.cpu.dcache.ReadReq_mshr_uncacheable_latency::total  53014384375                       # number of ReadReq MSHR uncacheable cycles
system.cpu.dcache.ReadReq_avg_mshr_uncacheable_latency::.cpu.data 91754.994747                       # average ReadReq mshr uncacheable latency
system.cpu.dcache.ReadReq_avg_mshr_uncacheable_latency::total 91754.994747                       # average ReadReq mshr uncacheable latency
system.cpu.dcache.WriteReq_mshr_uncacheable::.cpu.data       104910                       # number of WriteReq MSHR uncacheable
system.cpu.dcache.WriteReq_mshr_uncacheable::total       104910                       # number of WriteReq MSHR uncacheable
system.cpu.dcache.tags.pwrStateResidencyTicks::UNDEFINED 343977424375                       # Cumulative time (in ticks) in various power states
system.cpu.dcache.tags.tagsinuse                    0                       # Cycle average of tags in use
system.cpu.dcache.tags.total_refs                   0                       # Total number of references to valid blocks.
system.cpu.dcache.tags.sampled_refs                 0                       # Sample count of references to valid blocks.
system.cpu.dcache.tags.avg_refs                   nan                       # Average number of references to valid blocks.
system.cpu.dcache.tags.warmup_cycle                 0                       # Cycle when the warmup percentage was hit.
system.cpu.dcache.tags.tag_accesses                 0                       # Number of tag accesses
system.cpu.dcache.tags.data_accesses                0                       # Number of data accesses
system.cpu.itb.walker.pwrStateResidencyTicks::UNDEFINED 343977424375                       # Cumulative time (in ticks) in various power states
system.cpu.itb.stage2_mmu.stage2_tlb.walker.pwrStateResidencyTicks::UNDEFINED 343977424375                       # Cumulative time (in ticks) in various power states

---------- End Simulation Statistics   ----------
