gem5 Simulator System.  http://gem5.org
gem5 is copyrighted software; use the --copyright option for details.

gem5 compiled May  2 2023 17:53:28
gem5 started May  2 2023 18:00:10
gem5 executing on node4x10a.cs.rochester.edu, pid 78190
command line: /u/sgupta45/gem5-SALAM/build/ARM/gem5_bus.opt --debug-flags=HWACC,CommInterface,LLVMInterface,StreamDma,NoncoherentDma,TickTimer,SchedulerStats --outdir=BM_ARM_OUT/solo_app/canny_0_deblur_1_gru_0_harris_0_lstm_0_scale_0_LAX configs/SALAM/scheduler.py --mem-size=4GB --mem-type=LPDDR5_6400_1x16_BG_BL32 --kernel=/u/sgupta45/gem5-SALAM/benchmarks/scheduler/sw/bin_solo_app/canny_0_deblur_1_gru_0_harris_0_lstm_0_scale_0_LAX.elf --vans-config-path=/u/sgupta45/VANS/config --disk-image=/u/sgupta45/gem5-SALAM/baremetal/common/fake.iso --machine-type=VExpress_GEM5_V1 --dtb-file=none --bare-metal --cpu-type=ex5_LITTLE --cpu-clock=1.6GHz --accpath=/u/sgupta45/gem5-SALAM/benchmarks --caches --cacheline_size=64 --l1d_size=32kB --l1d_assoc=4 --l1i_size=32kB --l1i_assoc=2

info: Standard input is not a terminal, disabling listeners.
Global frequency set at 1000000000000 ticks per second
Cycle Counts Loaded!
Cycle Counts Loaded!
Cycle Counts Loaded!
Cycle Counts Loaded!
Cycle Counts Loaded!
Cycle Counts Loaded!
Cycle Counts Loaded!
Cycle Counts Loaded!
Cycle Counts Loaded!
Cycle Counts Loaded!
Cycle Counts Loaded!
**** REAL SIMULATION ****
123947500: global: Timer #2 started at tick 123947500
125560625: global: Timer #2 stopped at tick 125560625. Duration: 1613125
130648750: system.acctest.isp0_dma: SRC:0x0000000082058a40, DST:0x0000000027000020, LEN:16900
131378125: global: Number of accelerators running = 1
133923750: system.acctest.isp0_dma: Transfer completed in 3.275 us
134455625: global: Timer #0 started at tick 134455625
134800625: global: Timer #1 started at tick 134800625
135470000: global: Timer #1 stopped at tick 135470000. Duration: 669375
137723125: global: Timer #0 stopped at tick 137723125. Duration: 3267500
137741875: global: Number of accelerators running = 1
********************************************************************************
system.acctest.isp0.compute
   ========= Performance Analysis =============
   Setup Time:                      0.14069seconds
   Simulation Time:                 349.057seconds
   System Clock:                    1GHz
   Transistor Latency:              1ns
   Runtime:                         34882 cycles
   Runtime:                         34.882 us
   Stalls:                          1 cycles
   Executed Nodes:                  34880 cycles

********************************************************************************
   ========= Performance Analysis =================
   Setup Time:                      1.4069e+08ns
   Simulation Time:                 3.49057e+11ns
   System Clock:                    1GHz
   Transistor Latency:              0ns
   Runtime:                         34882 cycles
   Runtime:                         3.4882e-06 seconds
   Stalls:                          1 cycles
       Load Only:                   0 cycles
       Store Only:                  1 cycles
       Compute Only:                0 cycles
       Compute & Store:             0 cycles
       Load & Store:                0 cycles
       Load & Compute:              0 cycles
       Load & Compute & Store:      0 cycles
   Executed Nodes:                  34880 cycles
       Load Only:                   0 cycles
       Store Only:                  1 cycles
       Compute Only:                3453 cycles
       Compute & Store:             19014 cycles
       Load & Store:                0 cycles
       Load & Compute:              2467 cycles
       Load & Compute & Store:      9945 cycles

   ========= Runtime FU's ========= (Max | Avg) ===
   Counter FU's:                      10 | 0.118075
   Integer Add/Sub FU's:              76 | 0.082082
   Integer Mul/Div FU's:              11 | 0.043888
   Integer Shifter FU's:              42 | 0.055974
   Integer Bitwise FU's:               4 | 0.059443
   Floating Point Float Add/Sub:      53 | 0.116839
   Floating Point Double Add/Sub:      0 | 0.000000
   Floating Point Float Mul/Div:      76 | 0.625626
   Floating Point Double Mul/Div:      0 | 0.000000
   0 Cycle Compare FU's:              85 | 0.664984
   GEP Instruction FU's:              33 | 0.117424
   Type Conversion FU's:             110 | 0.379700

   ========= Static FU's ==========================
   Counter FU's:                    0
   Integer Add/Sub FU's:            0
   Integer Mul/Div FU's:            0
   Integer Shifter FU's:            0
   Integer Bitwise FU's:            0
   Floating Point Float Add/Sub:    0
   Floating Point Double Add/Sub:   0
   Floating Point Float Mul/Div:    0
   Floating Point Double Mul/Div:   0
   0 Cycle Compare FU's:            0
   GEP Instruction FU's:            0
   Type Conversion FU's:            0
   Other:                           0

   ========= Pipeline Register Usage =============
   Total Number of Registers:       1620
   Max Register Usage Per Cycle:    151
   Avg Register Usage Per Cycle:    58.744711
   Avg Register Size (Bytes):       5.073357

   ========= Memory Configuration =================
   Cache Bus Ports:                 0
   Shared Cache Size:               0kB
   Local Bus Ports:                 0
   Private SPM Size:                112kB
   Private Read Ports:              0
   Private Write Ports:             0
   Private Read Bus Width:          64
   Private Write Bus Width:         64
       Memory Reads:                0
       Memory Writes:               0
   ========= Power Analysis ======================
   FU Leakage Power:                1.637787 mW 
   FU Dynamic Power:                9.655087 mW 
   FU Total Power:                  11.292874 mW 

   Registers Leakage Power:          0.021654 mW 
   Registers Dynamic Power:          3.085961 mW 
       Register Reads (Bits):        2049133
       Register Writes (Bits):       2049168
   Registers Total Power:            3.107615 mW

   SPM Leakage Power:               0.061081 mW
   SPM Read Dynamic Power:          11.103730 mW
   SPM Write Dynamic Power:         7.385230 mW
   SPM Total Power:                 18.550041 mW

   Cache Leakage Power:             0.000000 mW
   Cache Read Dynamic Power:        0.000000 mW
   Cache Write Dynamic Power:       0.000000 mW
   Cache Total Power:               0.000000 mW

   Accelerator Power:               14.400490 mW
   Accelerator Power (SPM):         32.950531 mW
   Accelerator Power (Cache):       14.400490 mW

   ========= Area Analysis =======================
   FU Area:                         176023.796875 um^2 (0.176024 mm^2)
   Register Area:                   1760.064941 um^2 (0.001760 mm^2)
   SPM Area:                        2165.394891 um^2 (0.002165 mm^2)
   Cache Area:                      0.000000 um^2 (0.000000 mm^2)

   Accelerator Area:                177783.859375 um^2 (0.177784 mm^2)
   Accelerator Area (SPM):          179949.254266 um^2 (0.179949 mm^2)
   Accelerator Area (Cache):        177783.859375 um^2 (0.177784 mm^2)

   ========= SPM Resizing  =======================
   SPM Optimized Leakage Power:     0.005964 mW
   SPM Opt Area:                    422.108128 um^2

172080625: global: Timer #0 started at tick 172080625
172353750: global: Timer #2 started at tick 172353750
172946875: global: Timer #2 stopped at tick 172946875. Duration: 593125
173754375: global: DAG ID = 0
173817500: global: Node ID = 0
173835625: global: Node deadline difference = -247
173853750: global: Predicted memory time / byte = 0 us/byte
173871875: global: Predicted memory time = 0 us
173934375: global: Predicted memory time / byte = 0 us/byte
173952500: global: Predicted memory time = 0 us
173970625: global: Predicted memory time / byte = 0.000230414 us/byte
173988750: global: Predicted memory time = 3 us
174006875: global: Predicted memory time / byte = 0 us/byte
174069375: global: Predicted memory time = 0 us
175338750: system.acctest.grayscale0_dma: SRC:0x0000000027004224, DST:0x0000000025000020, LEN:49152
176047500: global: Timer #0 stopped at tick 176047500. Duration: 3966875
176061875: global: Number of accelerators running = 1
183039750: system.acctest.grayscale0_dma: Transfer completed in 7.701 us
183131875: global: Timer #0 started at tick 183131875
183180000: global: Timer #1 started at tick 183180000
183387500: global: Timer #1 stopped at tick 183387500. Duration: 207500
184800000: global: Timer #0 stopped at tick 184800000. Duration: 1668125
184814375: global: Number of accelerators running = 1
********************************************************************************
system.acctest.grayscale0.compute
   ========= Performance Analysis =============
   Setup Time:                      0.006359seconds
   Simulation Time:                 96.529983seconds
   System Clock:                    1.000000GHz
   Transistor Latency:              1ns
   Runtime:                         10263 cycles
   Runtime:                         10.263000 us
   Stalls:                          1 cycles
   Executed Nodes:                  10261 cycles

********************************************************************************
   ========= Performance Analysis =================
   Setup Time:                      6359034.000000ns
   Simulation Time:                 96529982655.000000ns
   System Clock:                    1.000000GHz
   Transistor Latency:              0ns
   Runtime:                         10263 cycles
   Runtime:                         0.000001 seconds
   Stalls:                          1 cycles
       Load Only:                   0 cycles
       Store Only:                  1 cycles
       Compute Only:                0 cycles
       Compute & Store:             0 cycles
       Load & Store:                0 cycles
       Load & Compute:              0 cycles
       Load & Compute & Store:      0 cycles
   Executed Nodes:                  10261 cycles
       Load Only:                   0 cycles
       Store Only:                  1 cycles
       Compute Only:                88 cycles
       Compute & Store:             344 cycles
       Load & Store:                0 cycles
       Load & Compute:              1981 cycles
       Load & Compute & Store:      7847 cycles

   ========= Runtime FU's ========= (Max | Avg) ===
   Counter FU's:                      24 | 0.199556
   Integer Add/Sub FU's:               0 | 0.000000
   Integer Mul/Div FU's:               8 | 0.199552
   Integer Shifter FU's:               0 | 0.000000
   Integer Bitwise FU's:               1 | 0.000097
   Floating Point Float Add/Sub:      49 | 0.114264
   Floating Point Double Add/Sub:      0 | 0.000000
   Floating Point Float Mul/Div:      42 | 0.114129
   Floating Point Double Mul/Div:      0 | 0.000000
   0 Cycle Compare FU's:               9 | 0.066626
   GEP Instruction FU's:              36 | 0.177452
   Type Conversion FU's:              76 | 0.401969

   ========= Static FU's ==========================
   Counter FU's:                    0
   Integer Add/Sub FU's:            0
   Integer Mul/Div FU's:            0
   Integer Shifter FU's:            0
   Integer Bitwise FU's:            0
   Floating Point Float Add/Sub:    0
   Floating Point Double Add/Sub:   0
   Floating Point Float Mul/Div:    0
   Floating Point Double Mul/Div:   0
   0 Cycle Compare FU's:            0
   GEP Instruction FU's:            0
   Type Conversion FU's:            0
   Other:                           0

   ========= Pipeline Register Usage =============
   Total Number of Registers:       235
   Max Register Usage Per Cycle:    90
   Avg Register Usage Per Cycle:    33.924291
   Avg Register Size (Bytes):       5.841147

   ========= Memory Configuration =================
   Cache Bus Ports:                 0
   Shared Cache Size:               0kB
   Local Bus Ports:                 0
   Private SPM Size:                176kB
   Private Read Ports:              0
   Private Write Ports:             0
   Private Read Bus Width:          64
   Private Write Bus Width:         64
       Memory Reads:                0
       Memory Writes:               0
   ========= Power Analysis ======================
   FU Leakage Power:                1.178269 mW 
   FU Dynamic Power:                0.617392 mW 
   FU Total Power:                  1.795662 mW 

   Registers Leakage Power:          0.014185 mW 
   Registers Dynamic Power:          0.101057 mW 
       Register Reads (Bits):        348165
       Register Writes (Bits):       348168
   Registers Total Power:            0.115242 mW

   SPM Leakage Power:               0.089881 mW
   SPM Read Dynamic Power:          6.997296 mW
   SPM Write Dynamic Power:         2.062375 mW
   SPM Total Power:                 9.149552 mW

   Cache Leakage Power:             0.000000 mW
   Cache Read Dynamic Power:        0.000000 mW
   Cache Write Dynamic Power:       0.000000 mW
   Cache Total Power:               0.000000 mW

   Accelerator Power:               1.910904 mW
   Accelerator Power (SPM):         11.060456 mW
   Accelerator Power (Cache):       1.910904 mW

   ========= Area Analysis =======================
   FU Area:                         143348.187500 um^2 (0.143348 mm^2)
   Register Area:                   1152.968140 um^2 (0.001153 mm^2)
   SPM Area:                        3573.642862 um^2 (0.003574 mm^2)
   Cache Area:                      0.000000 um^2 (0.000000 mm^2)

   Accelerator Area:                144501.156250 um^2 (0.144501 mm^2)
   Accelerator Area (SPM):          148074.799112 um^2 (0.148075 mm^2)
   Accelerator Area (Cache):        144501.156250 um^2 (0.144501 mm^2)

   ========= SPM Resizing  =======================
   SPM Optimized Leakage Power:     0.003633 mW
   SPM Opt Area:                    364.024374 um^2

194707500: global: Timer #0 started at tick 194707500
194880000: global: Timer #2 started at tick 194880000
195133750: global: Timer #2 stopped at tick 195133750. Duration: 253750
208646625: system.acctest.grayscale0_dma: SRC:0x000000002500c020, DST:0x0000000082068e00, LEN:65536
210492000: system.acctest.convolution0_dma: SRC:0x000000002500c020, DST:0x0000000022000020, LEN:65536
210961875: global: Timer #0 stopped at tick 210961875. Duration: 16254375
210976250: global: Number of accelerators running = 2
219427625: system.acctest.grayscale0_dma: Transfer completed in 10.781 us
219544375: global: Timer #0 started at tick 219544375
219825625: global: Timer #1 started at tick 219825625
220223125: global: Timer #1 stopped at tick 220223125. Duration: 397500
220642500: global: DAG ID = 0
220661875: global: Node ID = 1
220730000: global: Node deadline difference = -16572
220748125: global: Predicted memory time / byte = 0.000230414 us/byte
220766250: global: Predicted memory time = 26.4257 us
220784375: global: Predicted memory time / byte = 0.000230414 us/byte
220802500: global: Predicted memory time = 26.4257 us
220820625: global: Predicted memory time / byte = 0.000155802 us/byte
220838750: global: Predicted memory time = 7 us
220856875: global: Predicted memory time / byte = 0.000167023 us/byte
220876875: global: Predicted memory time = 10 us
221018750: global: Timer #0 stopped at tick 221018750. Duration: 1474375
221033125: global: Number of accelerators running = 1
223888000: system.acctest.convolution0_dma: Transfer completed in 13.396 us
223980000: global: Timer #0 started at tick 223980000
224028750: global: Timer #1 started at tick 224028750
224186875: global: Timer #1 stopped at tick 224186875. Duration: 158125
225820875: system.acctest.convolution0_dma: SRC:0x0000000082018780, DST:0x0000000022030020, LEN:100
225917875: system.acctest.convolution0_dma: Transfer completed in 0.097 us
226145000: global: Timer #0 stopped at tick 226145000. Duration: 2165000
226159375: global: Number of accelerators running = 1
226316875: global: Timer #0 started at tick 226316875
227701250: global: Timer #0 stopped at tick 227701250. Duration: 1384375
227715625: global: Number of accelerators running = 1
********************************************************************************
system.acctest.convolution0.compute
   ========= Performance Analysis =============
   Setup Time:                      0.455240seconds
   Simulation Time:                 206.285066seconds
   System Clock:                    1.000000GHz
   Transistor Latency:              1ns
   Runtime:                         1545605 cycles
   Runtime:                         1545.605000 us
   Stalls:                          0 cycles
   Executed Nodes:                  1545604 cycles

********************************************************************************
   ========= Performance Analysis =================
   Setup Time:                      455239803.000000ns
   Simulation Time:                 206285065672.000000ns
   System Clock:                    1.000000GHz
   Transistor Latency:              0ns
   Runtime:                         1545605 cycles
   Runtime:                         0.000155 seconds
   Stalls:                          0 cycles
       Load Only:                   0 cycles
       Store Only:                  0 cycles
       Compute Only:                0 cycles
       Compute & Store:             0 cycles
       Load & Store:                0 cycles
       Load & Compute:              0 cycles
       Load & Compute & Store:      0 cycles
   Executed Nodes:                  1545604 cycles
       Load Only:                   0 cycles
       Store Only:                  0 cycles
       Compute Only:                1127274 cycles
       Compute & Store:             16374 cycles
       Load & Store:                0 cycles
       Load & Compute:              401946 cycles
       Load & Compute & Store:      10 cycles

   ========= Runtime FU's ========= (Max | Avg) ===
   Counter FU's:                       3 | 0.112298
   Integer Add/Sub FU's:               4 | 0.211564
   Integer Mul/Div FU's:               1 | 0.052505
   Integer Shifter FU's:              10 | 0.005268
   Integer Bitwise FU's:               2 | 0.184266
   Floating Point Float Add/Sub:       5 | 0.207991
   Floating Point Double Add/Sub:      0 | 0.000000
   Floating Point Float Mul/Div:       2 | 0.130117
   Floating Point Double Mul/Div:      0 | 0.000000
   0 Cycle Compare FU's:              40 | 0.145956
   GEP Instruction FU's:               4 | 0.132683
   Type Conversion FU's:               7 | 0.186618

   ========= Static FU's ==========================
   Counter FU's:                    0
   Integer Add/Sub FU's:            0
   Integer Mul/Div FU's:            0
   Integer Shifter FU's:            0
   Integer Bitwise FU's:            0
   Floating Point Float Add/Sub:    0
   Floating Point Double Add/Sub:   0
   Floating Point Float Mul/Div:    0
   Floating Point Double Mul/Div:   0
   0 Cycle Compare FU's:            0
   GEP Instruction FU's:            0
   Type Conversion FU's:            0
   Other:                           0

   ========= Pipeline Register Usage =============
   Total Number of Registers:       1702
   Max Register Usage Per Cycle:    20
   Avg Register Usage Per Cycle:    6.348199
   Avg Register Size (Bytes):       5.569148

   ========= Memory Configuration =================
   Cache Bus Ports:                 0
   Shared Cache Size:               0kB
   Local Bus Ports:                 0
   Private SPM Size:                192kB
   Private Read Ports:              0
   Private Write Ports:             0
   Private Read Bus Width:          64
   Private Write Bus Width:         64
       Memory Reads:                0
       Memory Writes:               0
   ========= Power Analysis ======================
   FU Leakage Power:                0.196912 mW 
   FU Dynamic Power:                2743.028564 mW 
   FU Total Power:                  2743.225586 mW 

   Registers Leakage Power:          0.002459 mW 
   Registers Dynamic Power:          75.251152 mW 
       Register Reads (Bits):        9811808
       Register Writes (Bits):       10049727
   Registers Total Power:            75.253609 mW

   SPM Leakage Power:               0.078311 mW
   SPM Read Dynamic Power:          11.170319 mW
   SPM Write Dynamic Power:         0.953321 mW
   SPM Total Power:                 12.201951 mW

   Cache Leakage Power:             0.000000 mW
   Cache Read Dynamic Power:        0.000000 mW
   Cache Write Dynamic Power:       0.000000 mW
   Cache Total Power:               0.000000 mW

   Accelerator Power:               2818.479248 mW
   Accelerator Power (SPM):         2830.681199 mW
   Accelerator Power (Cache):       2818.479248 mW

   ========= Area Analysis =======================
   FU Area:                         22931.867188 um^2 (0.022932 mm^2)
   Register Area:                   199.868912 um^2 (0.000200 mm^2)
   SPM Area:                        1748.188735 um^2 (0.001748 mm^2)
   Cache Area:                      0.000000 um^2 (0.000000 mm^2)

   Accelerator Area:                23131.736328 um^2 (0.023132 mm^2)
   Accelerator Area (SPM):          24879.925063 um^2 (0.024880 mm^2)
   Accelerator Area (Cache):        23131.736328 um^2 (0.023132 mm^2)

   ========= SPM Resizing  =======================
   SPM Optimized Leakage Power:     0.002053 mW
   SPM Opt Area:                    145.024971 um^2

1773129375: global: Timer #0 started at tick 1773129375
1773311875: global: Timer #2 started at tick 1773311875
1773625625: global: Timer #2 stopped at tick 1773625625. Duration: 313750
1773875000: global: DAG ID = 0
1773888750: global: Node ID = 2
1773901875: global: Node deadline difference = -260
1773914375: global: Predicted memory time / byte = 0.000155802 us/byte
1773926875: global: Predicted memory time = 20.4369 us
1773939375: global: Predicted memory time / byte = 0.000155802 us/byte
1773951875: global: Predicted memory time = 20.4369 us
1773964375: global: Predicted memory time / byte = 0.000203766 us/byte
1773976875: global: Predicted memory time = 13 us
1773989375: global: Predicted memory time / byte = 0 us/byte
1774001875: global: Predicted memory time = 0 us
1788425875: system.acctest.elem_matrix0_dma: SRC:0x0000000082068e00, DST:0x0000000024000020, LEN:65536
1788890625: global: Timer #0 stopped at tick 1788890625. Duration: 15761250
1788905000: global: Number of accelerators running = 1
1800442875: system.acctest.elem_matrix0_dma: Transfer completed in 12.017 us
1800576875: global: Timer #0 started at tick 1800576875
1800625625: global: Timer #1 started at tick 1800625625
1800770000: global: Timer #1 stopped at tick 1800770000. Duration: 144375
1802659500: system.acctest.elem_matrix0_dma: SRC:0x0000000022010020, DST:0x0000000024010020, LEN:65536
1803013750: global: Timer #0 stopped at tick 1803013750. Duration: 2436875
1803028125: global: Number of accelerators running = 1
1812920500: system.acctest.elem_matrix0_dma: Transfer completed in 10.261 us
1813039375: global: Timer #0 started at tick 1813039375
1813090000: global: Timer #1 started at tick 1813090000
1813239375: global: Timer #1 stopped at tick 1813239375. Duration: 149375
1815151875: global: Timer #0 stopped at tick 1815151875. Duration: 2112500
1815166250: global: Number of accelerators running = 1
********************************************************************************
system.acctest.elem_matrix0.compute
   ========= Performance Analysis =============
   Setup Time:                      3.457480seconds
   Simulation Time:                 77.576759seconds
   System Clock:                    1.000000GHz
   Transistor Latency:              1ns
   Runtime:                         10944 cycles
   Runtime:                         10.944000 us
   Stalls:                          1 cycles
   Executed Nodes:                  10942 cycles

********************************************************************************
   ========= Performance Analysis =================
   Setup Time:                      3457479922.000000ns
   Simulation Time:                 77576759316.000000ns
   System Clock:                    1.000000GHz
   Transistor Latency:              0ns
   Runtime:                         10944 cycles
   Runtime:                         0.000001 seconds
   Stalls:                          1 cycles
       Load Only:                   0 cycles
       Store Only:                  1 cycles
       Compute Only:                0 cycles
       Compute & Store:             0 cycles
       Load & Store:                0 cycles
       Load & Compute:              0 cycles
       Load & Compute & Store:      0 cycles
   Executed Nodes:                  10942 cycles
       Load Only:                   0 cycles
       Store Only:                  16 cycles
       Compute Only:                1 cycles
       Compute & Store:             21 cycles
       Load & Store:                0 cycles
       Load & Compute:              18 cycles
       Load & Compute & Store:      10886 cycles

   ========= Runtime FU's ========= (Max | Avg) ===
   Counter FU's:                      32 | 0.046786
   Integer Add/Sub FU's:               0 | 0.000000
   Integer Mul/Div FU's:               0 | 0.000000
   Integer Shifter FU's:               0 | 0.000000
   Integer Bitwise FU's:               1 | 0.000091
   Floating Point Float Add/Sub:       0 | 0.000000
   Floating Point Double Add/Sub:      0 | 0.000000
   Floating Point Float Mul/Div:       0 | 0.000000
   Floating Point Double Mul/Div:      0 | 0.000000
   0 Cycle Compare FU's:             102 | 0.047066
   GEP Instruction FU's:              96 | 0.046784
   Type Conversion FU's:               7 | 0.006775

   ========= Static FU's ==========================
   Counter FU's:                    0
   Integer Add/Sub FU's:            0
   Integer Mul/Div FU's:            0
   Integer Shifter FU's:            0
   Integer Bitwise FU's:            0
   Floating Point Float Add/Sub:    0
   Floating Point Double Add/Sub:   0
   Floating Point Float Mul/Div:    0
   Floating Point Double Mul/Div:   0
   0 Cycle Compare FU's:            0
   GEP Instruction FU's:            0
   Type Conversion FU's:            0
   Other:                           0

   ========= Pipeline Register Usage =============
   Total Number of Registers:       5641
   Max Register Usage Per Cycle:    137
   Avg Register Usage Per Cycle:    12.117690
   Avg Register Size (Bytes):       5.980606

   ========= Memory Configuration =================
   Cache Bus Ports:                 0
   Shared Cache Size:               0kB
   Local Bus Ports:                 0
   Private SPM Size:                256kB
   Private Read Ports:              0
   Private Write Ports:             0
   Private Read Bus Width:          64
   Private Write Bus Width:         64
       Memory Reads:                0
       Memory Writes:               0
   ========= Power Analysis ======================
   FU Leakage Power:                0.000611 mW 
   FU Dynamic Power:                0.036818 mW 
   FU Total Power:                  0.037429 mW 

   Registers Leakage Power:          0.005281 mW 
   Registers Dynamic Power:          0.015342 mW 
       Register Reads (Bits):        132616
       Register Writes (Bits):       133658
   Registers Total Power:            0.020624 mW

   SPM Leakage Power:               0.104100 mW
   SPM Read Dynamic Power:          1.997266 mW
   SPM Write Dynamic Power:         0.953321 mW
   SPM Total Power:                 3.054688 mW

   Cache Leakage Power:             0.000000 mW
   Cache Read Dynamic Power:        0.000000 mW
   Cache Write Dynamic Power:       0.000000 mW
   Cache Total Power:               0.000000 mW

   Accelerator Power:               0.058053 mW
   Accelerator Power (SPM):         3.112741 mW
   Accelerator Power (Cache):       0.058053 mW

   ========= Area Analysis =======================
   FU Area:                         50.369961 um^2 (0.000050 mm^2)
   Register Area:                   429.271088 um^2 (0.000429 mm^2)
   SPM Area:                        2177.365505 um^2 (0.002177 mm^2)
   Cache Area:                      0.000000 um^2 (0.000000 mm^2)

   Accelerator Area:                479.641052 um^2 (0.000480 mm^2)
   Accelerator Area (SPM):          2657.006557 um^2 (0.002657 mm^2)
   Accelerator Area (Cache):        479.641052 um^2 (0.000480 mm^2)

   ========= SPM Resizing  =======================
   SPM Optimized Leakage Power:     0.004248 mW
   SPM Opt Area:                    178.524902 um^2

1825866875: global: Timer #0 started at tick 1825866875
1826045625: global: Timer #2 started at tick 1826045625
1826616875: global: Timer #2 stopped at tick 1826616875. Duration: 571250
1826861875: global: DAG ID = 0
1826875625: global: Node ID = 3
1826888750: global: Node deadline difference = -264
1826901250: global: Predicted memory time / byte = 0.000203766 us/byte
1826913750: global: Predicted memory time = 40.062 us
1826926250: global: Predicted memory time / byte = 0.000203766 us/byte
1826938750: global: Predicted memory time = 40.062 us
1826951250: global: Predicted memory time / byte = 0.00017009 us/byte
1826963750: global: Predicted memory time = 22 us
1826976250: global: Predicted memory time / byte = 0 us/byte
1826988750: global: Predicted memory time = 0 us
1828014500: system.acctest.convolution0_dma: SRC:0x0000000024020020, DST:0x0000000022000020, LEN:65536
1828289375: global: Timer #0 stopped at tick 1828289375. Duration: 2422500
1828303750: global: Number of accelerators running = 1
1838275500: system.acctest.convolution0_dma: Transfer completed in 10.261 us
1838402500: global: Timer #0 started at tick 1838402500
1838451250: global: Timer #1 started at tick 1838451250
1838592500: global: Timer #1 stopped at tick 1838592500. Duration: 141250
1839765875: system.acctest.convolution0_dma: SRC:0x0000000082018800, DST:0x0000000022030020, LEN:100
1839862875: system.acctest.convolution0_dma: Transfer completed in 0.097 us
1840046875: global: Timer #0 stopped at tick 1840046875. Duration: 1644375
1840061250: global: Number of accelerators running = 1
1840213750: global: Timer #0 started at tick 1840213750
1841596875: global: Timer #0 stopped at tick 1841596875. Duration: 1383125
1841611250: global: Number of accelerators running = 1
********************************************************************************
system.acctest.convolution0.compute
   ========= Performance Analysis =============
   Setup Time:                      0.374113seconds
   Simulation Time:                 187.269430seconds
   System Clock:                    1.000000GHz
   Transistor Latency:              1ns
   Runtime:                         1545605 cycles
   Runtime:                         1545.605000 us
   Stalls:                          0 cycles
   Executed Nodes:                  1545604 cycles

********************************************************************************
   ========= Performance Analysis =================
   Setup Time:                      374113055.000000ns
   Simulation Time:                 187269429600.000000ns
   System Clock:                    1.000000GHz
   Transistor Latency:              0ns
   Runtime:                         1545605 cycles
   Runtime:                         0.000155 seconds
   Stalls:                          0 cycles
       Load Only:                   0 cycles
       Store Only:                  0 cycles
       Compute Only:                0 cycles
       Compute & Store:             0 cycles
       Load & Store:                0 cycles
       Load & Compute:              0 cycles
       Load & Compute & Store:      0 cycles
   Executed Nodes:                  1545604 cycles
       Load Only:                   0 cycles
       Store Only:                  0 cycles
       Compute Only:                1127274 cycles
       Compute & Store:             16374 cycles
       Load & Store:                0 cycles
       Load & Compute:              401946 cycles
       Load & Compute & Store:      10 cycles

   ========= Runtime FU's ========= (Max | Avg) ===
   Counter FU's:                       3 | 0.112298
   Integer Add/Sub FU's:               4 | 0.211564
   Integer Mul/Div FU's:               1 | 0.052505
   Integer Shifter FU's:              10 | 0.005268
   Integer Bitwise FU's:               2 | 0.184266
   Floating Point Float Add/Sub:       5 | 0.207991
   Floating Point Double Add/Sub:      0 | 0.000000
   Floating Point Float Mul/Div:       2 | 0.130117
   Floating Point Double Mul/Div:      0 | 0.000000
   0 Cycle Compare FU's:              40 | 0.145956
   GEP Instruction FU's:               4 | 0.132683
   Type Conversion FU's:               7 | 0.186618

   ========= Static FU's ==========================
   Counter FU's:                    0
   Integer Add/Sub FU's:            0
   Integer Mul/Div FU's:            0
   Integer Shifter FU's:            0
   Integer Bitwise FU's:            0
   Floating Point Float Add/Sub:    0
   Floating Point Double Add/Sub:   0
   Floating Point Float Mul/Div:    0
   Floating Point Double Mul/Div:   0
   0 Cycle Compare FU's:            0
   GEP Instruction FU's:            0
   Type Conversion FU's:            0
   Other:                           0

   ========= Pipeline Register Usage =============
   Total Number of Registers:       1702
   Max Register Usage Per Cycle:    20
   Avg Register Usage Per Cycle:    6.348199
   Avg Register Size (Bytes):       5.569148

   ========= Memory Configuration =================
   Cache Bus Ports:                 0
   Shared Cache Size:               0kB
   Local Bus Ports:                 0
   Private SPM Size:                192kB
   Private Read Ports:              0
   Private Write Ports:             0
   Private Read Bus Width:          64
   Private Write Bus Width:         64
       Memory Reads:                0
       Memory Writes:               0
   ========= Power Analysis ======================
   FU Leakage Power:                0.196912 mW 
   FU Dynamic Power:                2743.028564 mW 
   FU Total Power:                  2743.225586 mW 

   Registers Leakage Power:          0.002459 mW 
   Registers Dynamic Power:          75.251152 mW 
       Register Reads (Bits):        9811808
       Register Writes (Bits):       10049727
   Registers Total Power:            75.253609 mW

   SPM Leakage Power:               0.078311 mW
   SPM Read Dynamic Power:          16.237008 mW
   SPM Write Dynamic Power:         2.044305 mW
   SPM Total Power:                 18.359623 mW

   Cache Leakage Power:             0.000000 mW
   Cache Read Dynamic Power:        0.000000 mW
   Cache Write Dynamic Power:       0.000000 mW
   Cache Total Power:               0.000000 mW

   Accelerator Power:               2818.479248 mW
   Accelerator Power (SPM):         2836.838872 mW
   Accelerator Power (Cache):       2818.479248 mW

   ========= Area Analysis =======================
   FU Area:                         22931.867188 um^2 (0.022932 mm^2)
   Register Area:                   199.868912 um^2 (0.000200 mm^2)
   SPM Area:                        1748.188735 um^2 (0.001748 mm^2)
   Cache Area:                      0.000000 um^2 (0.000000 mm^2)

   Accelerator Area:                23131.736328 um^2 (0.023132 mm^2)
   Accelerator Area (SPM):          24879.925063 um^2 (0.024880 mm^2)
   Accelerator Area (Cache):        23131.736328 um^2 (0.023132 mm^2)

   ========= SPM Resizing  =======================
   SPM Optimized Leakage Power:     0.002053 mW
   SPM Opt Area:                    145.024971 um^2

3387058750: global: Timer #0 started at tick 3387058750
3387231875: global: Timer #2 started at tick 3387231875
3387948750: global: Timer #2 stopped at tick 3387948750. Duration: 716875
3388198750: global: DAG ID = 0
3388212500: global: Node ID = 4
3388225625: global: Node deadline difference = -279
3388238125: global: Predicted memory time / byte = 0.000156738 us/byte
3388250625: global: Predicted memory time = 20.5597 us
3388263125: global: Predicted memory time / byte = 0.000156738 us/byte
3388275625: global: Predicted memory time = 20.5597 us
3388288125: global: Predicted memory time / byte = 0.000157135 us/byte
3388300625: global: Predicted memory time = 10 us
3388313125: global: Predicted memory time / byte = 0 us/byte
3388325625: global: Predicted memory time = 0 us
3401945875: system.acctest.elem_matrix0_dma: SRC:0x00000000820488c0, DST:0x0000000024000020, LEN:65536
3402188750: global: Timer #0 stopped at tick 3402188750. Duration: 15130000
3402203125: global: Number of accelerators running = 1
3413793875: system.acctest.elem_matrix0_dma: Transfer completed in 11.848 us
3413921250: global: Timer #0 started at tick 3413921250
3413963125: global: Timer #1 started at tick 3413963125
3414115625: global: Timer #1 stopped at tick 3414115625. Duration: 152500
3415258750: system.acctest.elem_matrix0_dma: SRC:0x0000000022010020, DST:0x0000000024010020, LEN:65536
3415538125: global: Timer #0 stopped at tick 3415538125. Duration: 1616875
3415552500: global: Number of accelerators running = 1
3425519750: system.acctest.elem_matrix0_dma: Transfer completed in 10.261 us
3425639375: global: Timer #0 started at tick 3425639375
3425673750: global: Timer #1 started at tick 3425673750
3425815000: global: Timer #1 stopped at tick 3425815000. Duration: 141250
3427490625: global: Timer #0 stopped at tick 3427490625. Duration: 1851250
3427505000: global: Number of accelerators running = 1
********************************************************************************
system.acctest.elem_matrix0.compute
   ========= Performance Analysis =============
   Setup Time:                      3.509766seconds
   Simulation Time:                 81.641609seconds
   System Clock:                    1.000000GHz
   Transistor Latency:              1ns
   Runtime:                         10932 cycles
   Runtime:                         10.932000 us
   Stalls:                          1 cycles
   Executed Nodes:                  10930 cycles

********************************************************************************
   ========= Performance Analysis =================
   Setup Time:                      3509765725.000000ns
   Simulation Time:                 81641608546.000000ns
   System Clock:                    1.000000GHz
   Transistor Latency:              0ns
   Runtime:                         10932 cycles
   Runtime:                         0.000001 seconds
   Stalls:                          1 cycles
       Load Only:                   0 cycles
       Store Only:                  1 cycles
       Compute Only:                0 cycles
       Compute & Store:             0 cycles
       Load & Store:                0 cycles
       Load & Compute:              0 cycles
       Load & Compute & Store:      0 cycles
   Executed Nodes:                  10930 cycles
       Load Only:                   0 cycles
       Store Only:                  4 cycles
       Compute Only:                1 cycles
       Compute & Store:             21 cycles
       Load & Store:                0 cycles
       Load & Compute:              6 cycles
       Load & Compute & Store:      10898 cycles

   ========= Runtime FU's ========= (Max | Avg) ===
   Counter FU's:                      32 | 0.046838
   Integer Add/Sub FU's:               0 | 0.000000
   Integer Mul/Div FU's:               0 | 0.000000
   Integer Shifter FU's:               0 | 0.000000
   Integer Bitwise FU's:               1 | 0.000091
   Floating Point Float Add/Sub:       0 | 0.000000
   Floating Point Double Add/Sub:      0 | 0.000000
   Floating Point Float Mul/Div:      34 | 0.044252
   Floating Point Double Mul/Div:      0 | 0.000000
   0 Cycle Compare FU's:             102 | 0.046945
   GEP Instruction FU's:              96 | 0.046835
   Type Conversion FU's:               7 | 0.006782

   ========= Static FU's ==========================
   Counter FU's:                    0
   Integer Add/Sub FU's:            0
   Integer Mul/Div FU's:            0
   Integer Shifter FU's:            0
   Integer Bitwise FU's:            0
   Floating Point Float Add/Sub:    0
   Floating Point Double Add/Sub:   0
   Floating Point Float Mul/Div:    0
   Floating Point Double Mul/Div:   0
   0 Cycle Compare FU's:            0
   GEP Instruction FU's:            0
   Type Conversion FU's:            0
   Other:                           0

   ========= Pipeline Register Usage =============
   Total Number of Registers:       5641
   Max Register Usage Per Cycle:    137
   Avg Register Usage Per Cycle:    12.130992
   Avg Register Size (Bytes):       5.980606

   ========= Memory Configuration =================
   Cache Bus Ports:                 0
   Shared Cache Size:               0kB
   Local Bus Ports:                 0
   Private SPM Size:                256kB
   Private Read Ports:              0
   Private Write Ports:             0
   Private Read Bus Width:          64
   Private Write Bus Width:         64
       Memory Reads:                0
       Memory Writes:               0
   ========= Power Analysis ======================
   FU Leakage Power:                0.045377 mW 
   FU Dynamic Power:                0.142576 mW 
   FU Total Power:                  0.187953 mW 

   Registers Leakage Power:          0.005281 mW 
   Registers Dynamic Power:          0.015326 mW 
       Register Reads (Bits):        132616
       Register Writes (Bits):       133658
   Registers Total Power:            0.020607 mW

   SPM Leakage Power:               0.104100 mW
   SPM Read Dynamic Power:          2.785289 mW
   SPM Write Dynamic Power:         2.044305 mW
   SPM Total Power:                 4.933694 mW

   Cache Leakage Power:             0.000000 mW
   Cache Read Dynamic Power:        0.000000 mW
   Cache Write Dynamic Power:       0.000000 mW
   Cache Total Power:               0.000000 mW

   Accelerator Power:               0.208559 mW
   Accelerator Power (SPM):         5.142254 mW
   Accelerator Power (Cache):       0.208559 mW

   ========= Area Analysis =======================
   FU Area:                         5472.068359 um^2 (0.005472 mm^2)
   Register Area:                   429.271088 um^2 (0.000429 mm^2)
   SPM Area:                        2177.365505 um^2 (0.002177 mm^2)
   Cache Area:                      0.000000 um^2 (0.000000 mm^2)

   Accelerator Area:                5901.339355 um^2 (0.005901 mm^2)
   Accelerator Area (SPM):          8078.704860 um^2 (0.008079 mm^2)
   Accelerator Area (Cache):        5901.339355 um^2 (0.005901 mm^2)

   ========= SPM Resizing  =======================
   SPM Optimized Leakage Power:     0.004248 mW
   SPM Opt Area:                    178.524902 um^2

3438269375: global: Timer #0 started at tick 3438269375
3438449375: global: Timer #2 started at tick 3438449375
3438800000: global: Timer #2 stopped at tick 3438800000. Duration: 350625
3452100875: system.acctest.elem_matrix0_dma: SRC:0x0000000024020020, DST:0x00000000820488c0, LEN:65536
3453567000: system.acctest.convolution0_dma: SRC:0x0000000024020020, DST:0x0000000022000020, LEN:65536
3453803750: global: Timer #0 stopped at tick 3453803750. Duration: 15534375
3453818125: global: Number of accelerators running = 2
3463344875: system.acctest.elem_matrix0_dma: Transfer completed in 11.244 us
3463471250: global: Timer #0 started at tick 3463471250
3463534375: global: Timer #1 started at tick 3463534375
3463689375: global: Timer #1 stopped at tick 3463689375. Duration: 155000
3464019375: global: DAG ID = 0
3464033125: global: Node ID = 5
3464052500: global: Node deadline difference = -13328
3464065000: global: Predicted memory time / byte = 0.000157135 us/byte
3464077500: global: Predicted memory time = 30.894 us
3464090000: global: Predicted memory time / byte = 0.000157135 us/byte
3464110000: global: Predicted memory time = 30.894 us
3464122500: global: Predicted memory time / byte = 0.000169174 us/byte
3464142500: global: Predicted memory time = 21 us
3464155000: global: Predicted memory time / byte = 0.000172256 us/byte
3464167500: global: Predicted memory time = 11 us
3464300000: global: Timer #0 stopped at tick 3464300000. Duration: 828750
3464314375: global: Number of accelerators running = 1
3467228000: system.acctest.convolution0_dma: Transfer completed in 13.661 us
3467312500: global: Timer #0 started at tick 3467312500
3467354375: global: Timer #1 started at tick 3467354375
3467495625: global: Timer #1 stopped at tick 3467495625. Duration: 141250
3468655875: system.acctest.convolution0_dma: SRC:0x0000000082018780, DST:0x0000000022030020, LEN:100
3468752875: system.acctest.convolution0_dma: Transfer completed in 0.097 us
3468932500: global: Timer #0 stopped at tick 3468932500. Duration: 1620000
3468946875: global: Number of accelerators running = 1
3469098750: global: Timer #0 started at tick 3469098750
3470446875: global: Timer #0 stopped at tick 3470446875. Duration: 1348125
3470461250: global: Number of accelerators running = 1
********************************************************************************
system.acctest.convolution0.compute
   ========= Performance Analysis =============
   Setup Time:                      0.373991seconds
   Simulation Time:                 191.787263seconds
   System Clock:                    1.000000GHz
   Transistor Latency:              1ns
   Runtime:                         1545605 cycles
   Runtime:                         1545.605000 us
   Stalls:                          0 cycles
   Executed Nodes:                  1545604 cycles

********************************************************************************
   ========= Performance Analysis =================
   Setup Time:                      373991008.000000ns
   Simulation Time:                 191787263272.000000ns
   System Clock:                    1.000000GHz
   Transistor Latency:              0ns
   Runtime:                         1545605 cycles
   Runtime:                         0.000155 seconds
   Stalls:                          0 cycles
       Load Only:                   0 cycles
       Store Only:                  0 cycles
       Compute Only:                0 cycles
       Compute & Store:             0 cycles
       Load & Store:                0 cycles
       Load & Compute:              0 cycles
       Load & Compute & Store:      0 cycles
   Executed Nodes:                  1545604 cycles
       Load Only:                   0 cycles
       Store Only:                  0 cycles
       Compute Only:                1127274 cycles
       Compute & Store:             16374 cycles
       Load & Store:                0 cycles
       Load & Compute:              401946 cycles
       Load & Compute & Store:      10 cycles

   ========= Runtime FU's ========= (Max | Avg) ===
   Counter FU's:                       3 | 0.112298
   Integer Add/Sub FU's:               4 | 0.211564
   Integer Mul/Div FU's:               1 | 0.052505
   Integer Shifter FU's:              10 | 0.005268
   Integer Bitwise FU's:               2 | 0.184266
   Floating Point Float Add/Sub:       5 | 0.207991
   Floating Point Double Add/Sub:      0 | 0.000000
   Floating Point Float Mul/Div:       2 | 0.130117
   Floating Point Double Mul/Div:      0 | 0.000000
   0 Cycle Compare FU's:              40 | 0.145956
   GEP Instruction FU's:               4 | 0.132683
   Type Conversion FU's:               7 | 0.186618

   ========= Static FU's ==========================
   Counter FU's:                    0
   Integer Add/Sub FU's:            0
   Integer Mul/Div FU's:            0
   Integer Shifter FU's:            0
   Integer Bitwise FU's:            0
   Floating Point Float Add/Sub:    0
   Floating Point Double Add/Sub:   0
   Floating Point Float Mul/Div:    0
   Floating Point Double Mul/Div:   0
   0 Cycle Compare FU's:            0
   GEP Instruction FU's:            0
   Type Conversion FU's:            0
   Other:                           0

   ========= Pipeline Register Usage =============
   Total Number of Registers:       1702
   Max Register Usage Per Cycle:    20
   Avg Register Usage Per Cycle:    6.348199
   Avg Register Size (Bytes):       5.569148

   ========= Memory Configuration =================
   Cache Bus Ports:                 0
   Shared Cache Size:               0kB
   Local Bus Ports:                 0
   Private SPM Size:                192kB
   Private Read Ports:              0
   Private Write Ports:             0
   Private Read Bus Width:          64
   Private Write Bus Width:         64
       Memory Reads:                0
       Memory Writes:               0
   ========= Power Analysis ======================
   FU Leakage Power:                0.196912 mW 
   FU Dynamic Power:                2743.028564 mW 
   FU Total Power:                  2743.225586 mW 

   Registers Leakage Power:          0.002459 mW 
   Registers Dynamic Power:          75.251152 mW 
       Register Reads (Bits):        9811808
       Register Writes (Bits):       10049727
   Registers Total Power:            75.253609 mW

   SPM Leakage Power:               0.078311 mW
   SPM Read Dynamic Power:          19.450047 mW
   SPM Write Dynamic Power:         2.457440 mW
   SPM Total Power:                 21.985798 mW

   Cache Leakage Power:             0.000000 mW
   Cache Read Dynamic Power:        0.000000 mW
   Cache Write Dynamic Power:       0.000000 mW
   Cache Total Power:               0.000000 mW

   Accelerator Power:               2818.479248 mW
   Accelerator Power (SPM):         2840.465046 mW
   Accelerator Power (Cache):       2818.479248 mW

   ========= Area Analysis =======================
   FU Area:                         22931.867188 um^2 (0.022932 mm^2)
   Register Area:                   199.868912 um^2 (0.000200 mm^2)
   SPM Area:                        1748.188735 um^2 (0.001748 mm^2)
   Cache Area:                      0.000000 um^2 (0.000000 mm^2)

   Accelerator Area:                23131.736328 um^2 (0.023132 mm^2)
   Accelerator Area (SPM):          24879.925063 um^2 (0.024880 mm^2)
   Accelerator Area (Cache):        23131.736328 um^2 (0.023132 mm^2)

   ========= SPM Resizing  =======================
   SPM Optimized Leakage Power:     0.002053 mW
   SPM Opt Area:                    145.024971 um^2

5015908750: global: Timer #0 started at tick 5015908750
5016081875: global: Timer #2 started at tick 5016081875
5016511250: global: Timer #2 stopped at tick 5016511250. Duration: 429375
5016741875: global: DAG ID = 0
5016755625: global: Node ID = 6
5016768750: global: Node deadline difference = -284
5016781250: global: Predicted memory time / byte = 0.000156891 us/byte
5016793750: global: Predicted memory time = 20.5797 us
5016806250: global: Predicted memory time / byte = 0.000156891 us/byte
5016818750: global: Predicted memory time = 20.5797 us
5016831250: global: Predicted memory time / byte = 0.000208374 us/byte
5016843750: global: Predicted memory time = 13 us
5016856250: global: Predicted memory time / byte = 0 us/byte
5016868750: global: Predicted memory time = 0 us
5030445875: system.acctest.elem_matrix0_dma: SRC:0x0000000082068e00, DST:0x0000000024000020, LEN:65536
5030653125: global: Timer #0 stopped at tick 5030653125. Duration: 14744375
5030665625: global: Number of accelerators running = 1
5042430875: system.acctest.elem_matrix0_dma: Transfer completed in 11.985 us
5042548750: global: Timer #0 started at tick 5042548750
5042588750: global: Timer #1 started at tick 5042588750
5042730000: global: Timer #1 stopped at tick 5042730000. Duration: 141250
5043847375: system.acctest.elem_matrix0_dma: SRC:0x0000000022010020, DST:0x0000000024010020, LEN:65536
5044118125: global: Timer #0 stopped at tick 5044118125. Duration: 1569375
5044132500: global: Number of accelerators running = 1
5054108375: system.acctest.elem_matrix0_dma: Transfer completed in 10.261 us
5054228750: global: Timer #0 started at tick 5054228750
5054269375: global: Timer #1 started at tick 5054269375
5054410625: global: Timer #1 stopped at tick 5054410625. Duration: 141250
5056095625: global: Timer #0 stopped at tick 5056095625. Duration: 1866875
5056110000: global: Number of accelerators running = 1
********************************************************************************
system.acctest.elem_matrix0.compute
   ========= Performance Analysis =============
   Setup Time:                      3.549563seconds
   Simulation Time:                 79.913706seconds
   System Clock:                    1.000000GHz
   Transistor Latency:              1ns
   Runtime:                         10944 cycles
   Runtime:                         10.944000 us
   Stalls:                          1 cycles
   Executed Nodes:                  10942 cycles

********************************************************************************
   ========= Performance Analysis =================
   Setup Time:                      3549562863.000000ns
   Simulation Time:                 79913706455.000000ns
   System Clock:                    1.000000GHz
   Transistor Latency:              0ns
   Runtime:                         10944 cycles
   Runtime:                         0.000001 seconds
   Stalls:                          1 cycles
       Load Only:                   0 cycles
       Store Only:                  1 cycles
       Compute Only:                0 cycles
       Compute & Store:             0 cycles
       Load & Store:                0 cycles
       Load & Compute:              0 cycles
       Load & Compute & Store:      0 cycles
   Executed Nodes:                  10942 cycles
       Load Only:                   0 cycles
       Store Only:                  16 cycles
       Compute Only:                1 cycles
       Compute & Store:             21 cycles
       Load & Store:                0 cycles
       Load & Compute:              18 cycles
       Load & Compute & Store:      10886 cycles

   ========= Runtime FU's ========= (Max | Avg) ===
   Counter FU's:                      32 | 0.046786
   Integer Add/Sub FU's:               0 | 0.000000
   Integer Mul/Div FU's:               0 | 0.000000
   Integer Shifter FU's:               0 | 0.000000
   Integer Bitwise FU's:               1 | 0.000091
   Floating Point Float Add/Sub:       0 | 0.000000
   Floating Point Double Add/Sub:      0 | 0.000000
   Floating Point Float Mul/Div:       0 | 0.000000
   Floating Point Double Mul/Div:      0 | 0.000000
   0 Cycle Compare FU's:             102 | 0.047066
   GEP Instruction FU's:              96 | 0.046784
   Type Conversion FU's:               7 | 0.006775

   ========= Static FU's ==========================
   Counter FU's:                    0
   Integer Add/Sub FU's:            0
   Integer Mul/Div FU's:            0
   Integer Shifter FU's:            0
   Integer Bitwise FU's:            0
   Floating Point Float Add/Sub:    0
   Floating Point Double Add/Sub:   0
   Floating Point Float Mul/Div:    0
   Floating Point Double Mul/Div:   0
   0 Cycle Compare FU's:            0
   GEP Instruction FU's:            0
   Type Conversion FU's:            0
   Other:                           0

   ========= Pipeline Register Usage =============
   Total Number of Registers:       5641
   Max Register Usage Per Cycle:    137
   Avg Register Usage Per Cycle:    12.117690
   Avg Register Size (Bytes):       5.980606

   ========= Memory Configuration =================
   Cache Bus Ports:                 0
   Shared Cache Size:               0kB
   Local Bus Ports:                 0
   Private SPM Size:                256kB
   Private Read Ports:              0
   Private Write Ports:             0
   Private Read Bus Width:          64
   Private Write Bus Width:         64
       Memory Reads:                0
       Memory Writes:               0
   ========= Power Analysis ======================
   FU Leakage Power:                0.000611 mW 
   FU Dynamic Power:                0.036818 mW 
   FU Total Power:                  0.037429 mW 

   Registers Leakage Power:          0.005281 mW 
   Registers Dynamic Power:          0.015342 mW 
       Register Reads (Bits):        132616
       Register Writes (Bits):       133658
   Registers Total Power:            0.020624 mW

   SPM Leakage Power:               0.104100 mW
   SPM Read Dynamic Power:          3.776796 mW
   SPM Write Dynamic Power:         2.457440 mW
   SPM Total Power:                 6.338336 mW

   Cache Leakage Power:             0.000000 mW
   Cache Read Dynamic Power:        0.000000 mW
   Cache Write Dynamic Power:       0.000000 mW
   Cache Total Power:               0.000000 mW

   Accelerator Power:               0.058053 mW
   Accelerator Power (SPM):         6.396389 mW
   Accelerator Power (Cache):       0.058053 mW

   ========= Area Analysis =======================
   FU Area:                         50.369961 um^2 (0.000050 mm^2)
   Register Area:                   429.271088 um^2 (0.000429 mm^2)
   SPM Area:                        2177.365505 um^2 (0.002177 mm^2)
   Cache Area:                      0.000000 um^2 (0.000000 mm^2)

   Accelerator Area:                479.641052 um^2 (0.000480 mm^2)
   Accelerator Area (SPM):          2657.006557 um^2 (0.002657 mm^2)
   Accelerator Area (Cache):        479.641052 um^2 (0.000480 mm^2)

   ========= SPM Resizing  =======================
   SPM Optimized Leakage Power:     0.004248 mW
   SPM Opt Area:                    178.524902 um^2

5066886875: global: Timer #0 started at tick 5066886875
5067053750: global: Timer #2 started at tick 5067053750
5067389375: global: Timer #2 stopped at tick 5067389375. Duration: 335625
5067630000: global: DAG ID = 0
5067643750: global: Node ID = 7
5067656875: global: Node deadline difference = -290
5067669375: global: Predicted memory time / byte = 0.000208374 us/byte
5067681875: global: Predicted memory time = 40.968 us
5067694375: global: Predicted memory time / byte = 0.000208374 us/byte
5067706875: global: Predicted memory time = 40.968 us
5067719375: global: Predicted memory time / byte = 0.000170174 us/byte
5067731875: global: Predicted memory time = 22 us
5067744375: global: Predicted memory time / byte = 0 us/byte
5067756875: global: Predicted memory time = 0 us
5068706625: system.acctest.convolution0_dma: SRC:0x0000000024020020, DST:0x0000000022000020, LEN:65536
5068940625: global: Timer #0 stopped at tick 5068940625. Duration: 2053750
5068955000: global: Number of accelerators running = 1
5078967625: system.acctest.convolution0_dma: Transfer completed in 10.261 us
5079099375: global: Timer #0 started at tick 5079099375
5079140625: global: Timer #1 started at tick 5079140625
5079285000: global: Timer #1 stopped at tick 5079285000. Duration: 144375
5080440875: system.acctest.convolution0_dma: SRC:0x0000000082018800, DST:0x0000000022030020, LEN:100
5080537875: system.acctest.convolution0_dma: Transfer completed in 0.097 us
5080721875: global: Timer #0 stopped at tick 5080721875. Duration: 1622500
5080736250: global: Number of accelerators running = 1
5080888750: global: Timer #0 started at tick 5080888750
5082223750: global: Timer #0 stopped at tick 5082223750. Duration: 1335000
5082238125: global: Number of accelerators running = 1
********************************************************************************
system.acctest.convolution0.compute
   ========= Performance Analysis =============
   Setup Time:                      0.403497seconds
   Simulation Time:                 188.138894seconds
   System Clock:                    1.000000GHz
   Transistor Latency:              1ns
   Runtime:                         1545605 cycles
   Runtime:                         1545.605000 us
   Stalls:                          0 cycles
   Executed Nodes:                  1545604 cycles

********************************************************************************
   ========= Performance Analysis =================
   Setup Time:                      403496827.000000ns
   Simulation Time:                 188138893871.000000ns
   System Clock:                    1.000000GHz
   Transistor Latency:              0ns
   Runtime:                         1545605 cycles
   Runtime:                         0.000155 seconds
   Stalls:                          0 cycles
       Load Only:                   0 cycles
       Store Only:                  0 cycles
       Compute Only:                0 cycles
       Compute & Store:             0 cycles
       Load & Store:                0 cycles
       Load & Compute:              0 cycles
       Load & Compute & Store:      0 cycles
   Executed Nodes:                  1545604 cycles
       Load Only:                   0 cycles
       Store Only:                  0 cycles
       Compute Only:                1127274 cycles
       Compute & Store:             16374 cycles
       Load & Store:                0 cycles
       Load & Compute:              401946 cycles
       Load & Compute & Store:      10 cycles

   ========= Runtime FU's ========= (Max | Avg) ===
   Counter FU's:                       3 | 0.112298
   Integer Add/Sub FU's:               4 | 0.211564
   Integer Mul/Div FU's:               1 | 0.052505
   Integer Shifter FU's:              10 | 0.005268
   Integer Bitwise FU's:               2 | 0.184266
   Floating Point Float Add/Sub:       5 | 0.207991
   Floating Point Double Add/Sub:      0 | 0.000000
   Floating Point Float Mul/Div:       2 | 0.130117
   Floating Point Double Mul/Div:      0 | 0.000000
   0 Cycle Compare FU's:              40 | 0.145956
   GEP Instruction FU's:               4 | 0.132683
   Type Conversion FU's:               7 | 0.186618

   ========= Static FU's ==========================
   Counter FU's:                    0
   Integer Add/Sub FU's:            0
   Integer Mul/Div FU's:            0
   Integer Shifter FU's:            0
   Integer Bitwise FU's:            0
   Floating Point Float Add/Sub:    0
   Floating Point Double Add/Sub:   0
   Floating Point Float Mul/Div:    0
   Floating Point Double Mul/Div:   0
   0 Cycle Compare FU's:            0
   GEP Instruction FU's:            0
   Type Conversion FU's:            0
   Other:                           0

   ========= Pipeline Register Usage =============
   Total Number of Registers:       1702
   Max Register Usage Per Cycle:    20
   Avg Register Usage Per Cycle:    6.348199
   Avg Register Size (Bytes):       5.569148

   ========= Memory Configuration =================
   Cache Bus Ports:                 0
   Shared Cache Size:               0kB
   Local Bus Ports:                 0
   Private SPM Size:                192kB
   Private Read Ports:              0
   Private Write Ports:             0
   Private Read Bus Width:          64
   Private Write Bus Width:         64
       Memory Reads:                0
       Memory Writes:               0
   ========= Power Analysis ======================
   FU Leakage Power:                0.196912 mW 
   FU Dynamic Power:                2743.028564 mW 
   FU Total Power:                  2743.225586 mW 

   Registers Leakage Power:          0.002459 mW 
   Registers Dynamic Power:          75.251152 mW 
       Register Reads (Bits):        9811808
       Register Writes (Bits):       10049727
   Registers Total Power:            75.253609 mW

   SPM Leakage Power:               0.078311 mW
   SPM Read Dynamic Power:          21.750371 mW
   SPM Write Dynamic Power:         2.880682 mW
   SPM Total Power:                 24.709363 mW

   Cache Leakage Power:             0.000000 mW
   Cache Read Dynamic Power:        0.000000 mW
   Cache Write Dynamic Power:       0.000000 mW
   Cache Total Power:               0.000000 mW

   Accelerator Power:               2818.479248 mW
   Accelerator Power (SPM):         2843.188611 mW
   Accelerator Power (Cache):       2818.479248 mW

   ========= Area Analysis =======================
   FU Area:                         22931.867188 um^2 (0.022932 mm^2)
   Register Area:                   199.868912 um^2 (0.000200 mm^2)
   SPM Area:                        1748.188735 um^2 (0.001748 mm^2)
   Cache Area:                      0.000000 um^2 (0.000000 mm^2)

   Accelerator Area:                23131.736328 um^2 (0.023132 mm^2)
   Accelerator Area (SPM):          24879.925063 um^2 (0.024880 mm^2)
   Accelerator Area (Cache):        23131.736328 um^2 (0.023132 mm^2)

   ========= SPM Resizing  =======================
   SPM Optimized Leakage Power:     0.002053 mW
   SPM Opt Area:                    145.024971 um^2

6627684375: global: Timer #0 started at tick 6627684375
6627857500: global: Timer #2 started at tick 6627857500
6628214375: global: Timer #2 stopped at tick 6628214375. Duration: 356875
6628445000: global: DAG ID = 0
6628458750: global: Node ID = 8
6628471875: global: Node deadline difference = -306
6628484375: global: Predicted memory time / byte = 0.000156982 us/byte
6628496875: global: Predicted memory time = 20.5917 us
6628509375: global: Predicted memory time / byte = 0.000156982 us/byte
6628521875: global: Predicted memory time = 20.5917 us
6628534375: global: Predicted memory time / byte = 0.000157196 us/byte
6628546875: global: Predicted memory time = 10 us
6628559375: global: Predicted memory time / byte = 0 us/byte
6628571875: global: Predicted memory time = 0 us
6642144500: system.acctest.elem_matrix0_dma: SRC:0x00000000820488c0, DST:0x0000000024000020, LEN:65536
6642351875: global: Timer #0 stopped at tick 6642351875. Duration: 14667500
6642364375: global: Number of accelerators running = 1
6654223500: system.acctest.elem_matrix0_dma: Transfer completed in 12.079 us
6654350625: global: Timer #0 started at tick 6654350625
6654391875: global: Timer #1 started at tick 6654391875
6654533125: global: Timer #1 stopped at tick 6654533125. Duration: 141250
6655680875: system.acctest.elem_matrix0_dma: SRC:0x0000000022010020, DST:0x0000000024010020, LEN:65536
6655951250: global: Timer #0 stopped at tick 6655951250. Duration: 1600625
6655965625: global: Number of accelerators running = 1
6665941875: system.acctest.elem_matrix0_dma: Transfer completed in 10.261 us
6666061875: global: Timer #0 started at tick 6666061875
6666102500: global: Timer #1 started at tick 6666102500
6666243750: global: Timer #1 stopped at tick 6666243750. Duration: 141250
6667915625: global: Timer #0 stopped at tick 6667915625. Duration: 1853750
6667930000: global: Number of accelerators running = 1
********************************************************************************
system.acctest.elem_matrix0.compute
   ========= Performance Analysis =============
   Setup Time:                      3.579685seconds
   Simulation Time:                 75.102844seconds
   System Clock:                    1.000000GHz
   Transistor Latency:              1ns
   Runtime:                         10932 cycles
   Runtime:                         10.932000 us
   Stalls:                          1 cycles
   Executed Nodes:                  10930 cycles

********************************************************************************
   ========= Performance Analysis =================
   Setup Time:                      3579685449.000000ns
   Simulation Time:                 75102844158.000000ns
   System Clock:                    1.000000GHz
   Transistor Latency:              0ns
   Runtime:                         10932 cycles
   Runtime:                         0.000001 seconds
   Stalls:                          1 cycles
       Load Only:                   0 cycles
       Store Only:                  1 cycles
       Compute Only:                0 cycles
       Compute & Store:             0 cycles
       Load & Store:                0 cycles
       Load & Compute:              0 cycles
       Load & Compute & Store:      0 cycles
   Executed Nodes:                  10930 cycles
       Load Only:                   0 cycles
       Store Only:                  4 cycles
       Compute Only:                1 cycles
       Compute & Store:             21 cycles
       Load & Store:                0 cycles
       Load & Compute:              6 cycles
       Load & Compute & Store:      10898 cycles

   ========= Runtime FU's ========= (Max | Avg) ===
   Counter FU's:                      32 | 0.046838
   Integer Add/Sub FU's:               0 | 0.000000
   Integer Mul/Div FU's:               0 | 0.000000
   Integer Shifter FU's:               0 | 0.000000
   Integer Bitwise FU's:               1 | 0.000091
   Floating Point Float Add/Sub:       0 | 0.000000
   Floating Point Double Add/Sub:      0 | 0.000000
   Floating Point Float Mul/Div:      34 | 0.044252
   Floating Point Double Mul/Div:      0 | 0.000000
   0 Cycle Compare FU's:             102 | 0.046945
   GEP Instruction FU's:              96 | 0.046835
   Type Conversion FU's:               7 | 0.006782

   ========= Static FU's ==========================
   Counter FU's:                    0
   Integer Add/Sub FU's:            0
   Integer Mul/Div FU's:            0
   Integer Shifter FU's:            0
   Integer Bitwise FU's:            0
   Floating Point Float Add/Sub:    0
   Floating Point Double Add/Sub:   0
   Floating Point Float Mul/Div:    0
   Floating Point Double Mul/Div:   0
   0 Cycle Compare FU's:            0
   GEP Instruction FU's:            0
   Type Conversion FU's:            0
   Other:                           0

   ========= Pipeline Register Usage =============
   Total Number of Registers:       5641
   Max Register Usage Per Cycle:    137
   Avg Register Usage Per Cycle:    12.130992
   Avg Register Size (Bytes):       5.980606

   ========= Memory Configuration =================
   Cache Bus Ports:                 0
   Shared Cache Size:               0kB
   Local Bus Ports:                 0
   Private SPM Size:                256kB
   Private Read Ports:              0
   Private Write Ports:             0
   Private Read Bus Width:          64
   Private Write Bus Width:         64
       Memory Reads:                0
       Memory Writes:               0
   ========= Power Analysis ======================
   FU Leakage Power:                0.045377 mW 
   FU Dynamic Power:                0.142576 mW 
   FU Total Power:                  0.187953 mW 

   Registers Leakage Power:          0.005281 mW 
   Registers Dynamic Power:          0.015326 mW 
       Register Reads (Bits):        132616
       Register Writes (Bits):       133658
   Registers Total Power:            0.020607 mW

   SPM Leakage Power:               0.104100 mW
   SPM Read Dynamic Power:          4.579344 mW
   SPM Write Dynamic Power:         2.880682 mW
   SPM Total Power:                 7.564127 mW

   Cache Leakage Power:             0.000000 mW
   Cache Read Dynamic Power:        0.000000 mW
   Cache Write Dynamic Power:       0.000000 mW
   Cache Total Power:               0.000000 mW

   Accelerator Power:               0.208559 mW
   Accelerator Power (SPM):         7.772686 mW
   Accelerator Power (Cache):       0.208559 mW

   ========= Area Analysis =======================
   FU Area:                         5472.068359 um^2 (0.005472 mm^2)
   Register Area:                   429.271088 um^2 (0.000429 mm^2)
   SPM Area:                        2177.365505 um^2 (0.002177 mm^2)
   Cache Area:                      0.000000 um^2 (0.000000 mm^2)

   Accelerator Area:                5901.339355 um^2 (0.005901 mm^2)
   Accelerator Area (SPM):          8078.704860 um^2 (0.008079 mm^2)
   Accelerator Area (Cache):        5901.339355 um^2 (0.005901 mm^2)

   ========= SPM Resizing  =======================
   SPM Optimized Leakage Power:     0.004248 mW
   SPM Opt Area:                    178.524902 um^2

6678694375: global: Timer #0 started at tick 6678694375
6678860625: global: Timer #2 started at tick 6678860625
6679264375: global: Timer #2 stopped at tick 6679264375. Duration: 403750
6692498750: system.acctest.elem_matrix0_dma: SRC:0x0000000024020020, DST:0x00000000820488c0, LEN:65536
6693722000: system.acctest.convolution0_dma: SRC:0x0000000024020020, DST:0x0000000022000020, LEN:65536
6693955000: global: Timer #0 stopped at tick 6693955000. Duration: 15260625
6693969375: global: Number of accelerators running = 2
6704704750: system.acctest.elem_matrix0_dma: Transfer completed in 12.206 us
6704822500: global: Timer #0 started at tick 6704822500
6704875000: global: Timer #1 started at tick 6704875000
6705016250: global: Timer #1 stopped at tick 6705016250. Duration: 141250
6705329375: global: DAG ID = 0
6705343125: global: Node ID = 9
6705362500: global: Node deadline difference = -10087
6705375000: global: Predicted memory time / byte = 0.000157196 us/byte
6705387500: global: Predicted memory time = 30.906 us
6705400000: global: Predicted memory time / byte = 0.000157196 us/byte
6705420000: global: Predicted memory time = 30.906 us
6705432500: global: Predicted memory time / byte = 0.000170967 us/byte
6705452500: global: Predicted memory time = 22 us
6705465000: global: Predicted memory time / byte = 0.000186737 us/byte
6705477500: global: Predicted memory time = 12 us
6705610000: global: Timer #0 stopped at tick 6705610000. Duration: 787500
6705624375: global: Number of accelerators running = 1
6707383000: system.acctest.convolution0_dma: Transfer completed in 13.661 us
6707467500: global: Timer #0 started at tick 6707467500
6707508750: global: Timer #1 started at tick 6707508750
6707650000: global: Timer #1 stopped at tick 6707650000. Duration: 141250
6708793750: system.acctest.convolution0_dma: SRC:0x0000000082018780, DST:0x0000000022030020, LEN:100
6708889750: system.acctest.convolution0_dma: Transfer completed in 0.096 us
6709061875: global: Timer #0 stopped at tick 6709061875. Duration: 1594375
6709076250: global: Number of accelerators running = 1
6709228750: global: Timer #0 started at tick 6709228750
6710553750: global: Timer #0 stopped at tick 6710553750. Duration: 1325000
6710568125: global: Number of accelerators running = 1
********************************************************************************
system.acctest.convolution0.compute
   ========= Performance Analysis =============
   Setup Time:                      0.408150seconds
   Simulation Time:                 189.554057seconds
   System Clock:                    1.000000GHz
   Transistor Latency:              1ns
   Runtime:                         1545605 cycles
   Runtime:                         1545.605000 us
   Stalls:                          0 cycles
   Executed Nodes:                  1545604 cycles

********************************************************************************
   ========= Performance Analysis =================
   Setup Time:                      408149715.000000ns
   Simulation Time:                 189554056870.000000ns
   System Clock:                    1.000000GHz
   Transistor Latency:              0ns
   Runtime:                         1545605 cycles
   Runtime:                         0.000155 seconds
   Stalls:                          0 cycles
       Load Only:                   0 cycles
       Store Only:                  0 cycles
       Compute Only:                0 cycles
       Compute & Store:             0 cycles
       Load & Store:                0 cycles
       Load & Compute:              0 cycles
       Load & Compute & Store:      0 cycles
   Executed Nodes:                  1545604 cycles
       Load Only:                   0 cycles
       Store Only:                  0 cycles
       Compute Only:                1127274 cycles
       Compute & Store:             16374 cycles
       Load & Store:                0 cycles
       Load & Compute:              401946 cycles
       Load & Compute & Store:      10 cycles

   ========= Runtime FU's ========= (Max | Avg) ===
   Counter FU's:                       3 | 0.112298
   Integer Add/Sub FU's:               4 | 0.211564
   Integer Mul/Div FU's:               1 | 0.052505
   Integer Shifter FU's:              10 | 0.005268
   Integer Bitwise FU's:               2 | 0.184266
   Floating Point Float Add/Sub:       5 | 0.207991
   Floating Point Double Add/Sub:      0 | 0.000000
   Floating Point Float Mul/Div:       2 | 0.130117
   Floating Point Double Mul/Div:      0 | 0.000000
   0 Cycle Compare FU's:              40 | 0.145956
   GEP Instruction FU's:               4 | 0.132683
   Type Conversion FU's:               7 | 0.186618

   ========= Static FU's ==========================
   Counter FU's:                    0
   Integer Add/Sub FU's:            0
   Integer Mul/Div FU's:            0
   Integer Shifter FU's:            0
   Integer Bitwise FU's:            0
   Floating Point Float Add/Sub:    0
   Floating Point Double Add/Sub:   0
   Floating Point Float Mul/Div:    0
   Floating Point Double Mul/Div:   0
   0 Cycle Compare FU's:            0
   GEP Instruction FU's:            0
   Type Conversion FU's:            0
   Other:                           0

   ========= Pipeline Register Usage =============
   Total Number of Registers:       1702
   Max Register Usage Per Cycle:    20
   Avg Register Usage Per Cycle:    6.348199
   Avg Register Size (Bytes):       5.569148

   ========= Memory Configuration =================
   Cache Bus Ports:                 0
   Shared Cache Size:               0kB
   Local Bus Ports:                 0
   Private SPM Size:                192kB
   Private Read Ports:              0
   Private Write Ports:             0
   Private Read Bus Width:          64
   Private Write Bus Width:         64
       Memory Reads:                0
       Memory Writes:               0
   ========= Power Analysis ======================
   FU Leakage Power:                0.196912 mW 
   FU Dynamic Power:                2743.028564 mW 
   FU Total Power:                  2743.225586 mW 

   Registers Leakage Power:          0.002459 mW 
   Registers Dynamic Power:          75.251152 mW 
       Register Reads (Bits):        9811808
       Register Writes (Bits):       10049727
   Registers Total Power:            75.253609 mW

   SPM Leakage Power:               0.078311 mW
   SPM Read Dynamic Power:          24.200039 mW
   SPM Write Dynamic Power:         3.448926 mW
   SPM Total Power:                 27.727276 mW

   Cache Leakage Power:             0.000000 mW
   Cache Read Dynamic Power:        0.000000 mW
   Cache Write Dynamic Power:       0.000000 mW
   Cache Total Power:               0.000000 mW

   Accelerator Power:               2818.479248 mW
   Accelerator Power (SPM):         2846.206524 mW
   Accelerator Power (Cache):       2818.479248 mW

   ========= Area Analysis =======================
   FU Area:                         22931.867188 um^2 (0.022932 mm^2)
   Register Area:                   199.868912 um^2 (0.000200 mm^2)
   SPM Area:                        1748.188735 um^2 (0.001748 mm^2)
   Cache Area:                      0.000000 um^2 (0.000000 mm^2)

   Accelerator Area:                23131.736328 um^2 (0.023132 mm^2)
   Accelerator Area (SPM):          24879.925063 um^2 (0.024880 mm^2)
   Accelerator Area (Cache):        23131.736328 um^2 (0.023132 mm^2)

   ========= SPM Resizing  =======================
   SPM Optimized Leakage Power:     0.002053 mW
   SPM Opt Area:                    145.024971 um^2

8256014375: global: Timer #0 started at tick 8256014375
8256180625: global: Timer #2 started at tick 8256180625
8256650000: global: Timer #2 stopped at tick 8256650000. Duration: 469375
8256883125: global: DAG ID = 0
8256896875: global: Node ID = 10
8256910000: global: Node deadline difference = -311
8256922500: global: Predicted memory time / byte = 0.000156982 us/byte
8256935000: global: Predicted memory time = 20.5917 us
8256947500: global: Predicted memory time / byte = 0.000156982 us/byte
8256960000: global: Predicted memory time = 20.5917 us
[...]
   Executed Nodes:                  10942 cycles
       Load Only:                   0 cycles
       Store Only:                  16 cycles
       Compute Only:                1 cycles
       Compute & Store:             21 cycles
       Load & Store:                0 cycles
       Load & Compute:              18 cycles
       Load & Compute & Store:      10886 cycles

   ========= Runtime FU's ========= (Max | Avg) ===
   Counter FU's:                      32 | 0.046786
   Integer Add/Sub FU's:               0 | 0.000000
   Integer Mul/Div FU's:               0 | 0.000000
   Integer Shifter FU's:               0 | 0.000000
   Integer Bitwise FU's:               1 | 0.000091
   Floating Point Float Add/Sub:       0 | 0.000000
   Floating Point Double Add/Sub:      0 | 0.000000
   Floating Point Float Mul/Div:       0 | 0.000000
   Floating Point Double Mul/Div:      0 | 0.000000
   0 Cycle Compare FU's:             102 | 0.047066
   GEP Instruction FU's:              96 | 0.046784
   Type Conversion FU's:               7 | 0.006775

   ========= Static FU's ==========================
   Counter FU's:                    0
   Integer Add/Sub FU's:            0
   Integer Mul/Div FU's:            0
   Integer Shifter FU's:            0
   Integer Bitwise FU's:            0
   Floating Point Float Add/Sub:    0
   Floating Point Double Add/Sub:   0
   Floating Point Float Mul/Div:    0
   Floating Point Double Mul/Div:   0
   0 Cycle Compare FU's:            0
   GEP Instruction FU's:            0
   Type Conversion FU's:            0
   Other:                           0

   ========= Pipeline Register Usage =============
   Total Number of Registers:       5641
   Max Register Usage Per Cycle:    137
   Avg Register Usage Per Cycle:    12.117690
   Avg Register Size (Bytes):       5.980606

   ========= Memory Configuration =================
   Cache Bus Ports:                 0
   Shared Cache Size:               0kB
   Local Bus Ports:                 0
   Private SPM Size:                256kB
   Private Read Ports:              0
   Private Write Ports:             0
   Private Read Bus Width:          64
   Private Write Bus Width:         64
       Memory Reads:                0
       Memory Writes:               0
   ========= Power Analysis ======================
   FU Leakage Power:                0.000611 mW 
   FU Dynamic Power:                0.036818 mW 
   FU Total Power:                  0.037429 mW 

   Registers Leakage Power:          0.005281 mW 
   Registers Dynamic Power:          0.015342 mW 
       Register Reads (Bits):        132616
       Register Writes (Bits):       133658
   Registers Total Power:            0.020624 mW

   SPM Leakage Power:               0.104100 mW
   SPM Read Dynamic Power:          7.306295 mW
   SPM Write Dynamic Power:         4.890273 mW
   SPM Total Power:                 12.300669 mW

   Cache Leakage Power:             0.000000 mW
   Cache Read Dynamic Power:        0.000000 mW
   Cache Write Dynamic Power:       0.000000 mW
   Cache Total Power:               0.000000 mW

   Accelerator Power:               0.058053 mW
   Accelerator Power (SPM):         12.358723 mW
   Accelerator Power (Cache):       0.058053 mW

   ========= Area Analysis =======================
   FU Area:                         50.369961 um^2 (0.000050 mm^2)
   Register Area:                   429.271088 um^2 (0.000429 mm^2)
   SPM Area:                        2177.365505 um^2 (0.002177 mm^2)
   Cache Area:                      0.000000 um^2 (0.000000 mm^2)

   Accelerator Area:                479.641052 um^2 (0.000480 mm^2)
   Accelerator Area (SPM):          2657.006557 um^2 (0.002657 mm^2)
   Accelerator Area (Cache):        479.641052 um^2 (0.000480 mm^2)

   ========= SPM Resizing  =======================
   SPM Optimized Leakage Power:     0.004248 mW
   SPM Opt Area:                    178.524902 um^2

14787396875: global: Timer #0 started at tick 14787396875
14787563750: global: Timer #2 started at tick 14787563750
14787963125: global: Timer #2 stopped at tick 14787963125. Duration: 399375
14788188125: global: DAG ID = 0
14788201875: global: Node ID = 19
14788215000: global: Node deadline difference = -370
14788227500: global: Predicted memory time / byte = 0.000211243 us/byte
14788240000: global: Predicted memory time = 41.532 us
14788252500: global: Predicted memory time / byte = 0.000211243 us/byte
14788265000: global: Predicted memory time = 41.532 us
14788277500: global: Predicted memory time / byte = 0.000169861 us/byte
14788290000: global: Predicted memory time = 21 us
14788302500: global: Predicted memory time / byte = 0 us/byte
14788315000: global: Predicted memory time = 0 us
14789277375: system.acctest.convolution0_dma: SRC:0x0000000024020020, DST:0x0000000022000020, LEN:65536
14789511875: global: Timer #0 stopped at tick 14789511875. Duration: 2115000
14789526250: global: Number of accelerators running = 1
14799538375: system.acctest.convolution0_dma: Transfer completed in 10.261 us
14799665625: global: Timer #0 started at tick 14799665625
14799703125: global: Timer #1 started at tick 14799703125
14799844375: global: Timer #1 stopped at tick 14799844375. Duration: 141250
14800988750: system.acctest.convolution0_dma: SRC:0x0000000082018800, DST:0x0000000022030020, LEN:100
14801084750: system.acctest.convolution0_dma: Transfer completed in 0.096 us
14801250000: global: Timer #0 stopped at tick 14801250000. Duration: 1584375
14801264375: global: Number of accelerators running = 1
14801416875: global: Timer #0 started at tick 14801416875
14802736875: global: Timer #0 stopped at tick 14802736875. Duration: 1320000
14802751250: global: Number of accelerators running = 1
********************************************************************************
system.acctest.convolution0.compute
   ========= Performance Analysis =============
   Setup Time:                      0.390186seconds
   Simulation Time:                 191.356544seconds
   System Clock:                    1.000000GHz
   Transistor Latency:              1ns
   Runtime:                         1545605 cycles
   Runtime:                         1545.605000 us
   Stalls:                          0 cycles
   Executed Nodes:                  1545604 cycles

********************************************************************************
   ========= Performance Analysis =================
   Setup Time:                      390186174.000000ns
   Simulation Time:                 191356543927.000000ns
   System Clock:                    1.000000GHz
   Transistor Latency:              0ns
   Runtime:                         1545605 cycles
   Runtime:                         0.000155 seconds
   Stalls:                          0 cycles
       Load Only:                   0 cycles
       Store Only:                  0 cycles
       Compute Only:                0 cycles
       Compute & Store:             0 cycles
       Load & Store:                0 cycles
       Load & Compute:              0 cycles
       Load & Compute & Store:      0 cycles
   Executed Nodes:                  1545604 cycles
       Load Only:                   0 cycles
       Store Only:                  0 cycles
       Compute Only:                1127274 cycles
       Compute & Store:             16374 cycles
       Load & Store:                0 cycles
       Load & Compute:              401946 cycles
       Load & Compute & Store:      10 cycles

   ========= Runtime FU's ========= (Max | Avg) ===
   Counter FU's:                       3 | 0.112298
   Integer Add/Sub FU's:               4 | 0.211564
   Integer Mul/Div FU's:               1 | 0.052505
   Integer Shifter FU's:              10 | 0.005268
   Integer Bitwise FU's:               2 | 0.184266
   Floating Point Float Add/Sub:       5 | 0.207991
   Floating Point Double Add/Sub:      0 | 0.000000
   Floating Point Float Mul/Div:       2 | 0.130117
   Floating Point Double Mul/Div:      0 | 0.000000
   0 Cycle Compare FU's:              40 | 0.145956
   GEP Instruction FU's:               4 | 0.132683
   Type Conversion FU's:               7 | 0.186618

   ========= Static FU's ==========================
   Counter FU's:                    0
   Integer Add/Sub FU's:            0
   Integer Mul/Div FU's:            0
   Integer Shifter FU's:            0
   Integer Bitwise FU's:            0
   Floating Point Float Add/Sub:    0
   Floating Point Double Add/Sub:   0
   Floating Point Float Mul/Div:    0
   Floating Point Double Mul/Div:   0
   0 Cycle Compare FU's:            0
   GEP Instruction FU's:            0
   Type Conversion FU's:            0
   Other:                           0

   ========= Pipeline Register Usage =============
   Total Number of Registers:       1702
   Max Register Usage Per Cycle:    20
   Avg Register Usage Per Cycle:    6.348199
   Avg Register Size (Bytes):       5.569148

   ========= Memory Configuration =================
   Cache Bus Ports:                 0
   Shared Cache Size:               0kB
   Local Bus Ports:                 0
   Private SPM Size:                192kB
   Private Read Ports:              0
   Private Write Ports:             0
   Private Read Bus Width:          64
   Private Write Bus Width:         64
       Memory Reads:                0
       Memory Writes:               0
   ========= Power Analysis ======================
   FU Leakage Power:                0.196912 mW 
   FU Dynamic Power:                2743.028564 mW 
   FU Total Power:                  2743.225586 mW 

   Registers Leakage Power:          0.002459 mW 
   Registers Dynamic Power:          75.251152 mW 
       Register Reads (Bits):        9811808
       Register Writes (Bits):       10049727
   Registers Total Power:            75.253609 mW

   SPM Leakage Power:               0.078311 mW
   SPM Read Dynamic Power:          34.886951 mW
   SPM Write Dynamic Power:         5.103456 mW
   SPM Total Power:                 40.068718 mW

   Cache Leakage Power:             0.000000 mW
   Cache Read Dynamic Power:        0.000000 mW
   Cache Write Dynamic Power:       0.000000 mW
   Cache Total Power:               0.000000 mW

   Accelerator Power:               2818.479248 mW
   Accelerator Power (SPM):         2858.547967 mW
   Accelerator Power (Cache):       2818.479248 mW

   ========= Area Analysis =======================
   FU Area:                         22931.867188 um^2 (0.022932 mm^2)
   Register Area:                   199.868912 um^2 (0.000200 mm^2)
   SPM Area:                        1748.188735 um^2 (0.001748 mm^2)
   Cache Area:                      0.000000 um^2 (0.000000 mm^2)

   Accelerator Area:                23131.736328 um^2 (0.023132 mm^2)
   Accelerator Area (SPM):          24879.925063 um^2 (0.024880 mm^2)
   Accelerator Area (Cache):        23131.736328 um^2 (0.023132 mm^2)

   ========= SPM Resizing  =======================
   SPM Optimized Leakage Power:     0.002053 mW
   SPM Opt Area:                    145.024971 um^2

16348198750: global: Timer #0 started at tick 16348198750
16348363750: global: Timer #2 started at tick 16348363750
16348709375: global: Timer #2 stopped at tick 16348709375. Duration: 345625
16348936250: global: DAG ID = 0
16348950000: global: Node ID = 20
16348963125: global: Node deadline difference = -387
16348975625: global: Predicted memory time / byte = 0.00015686 us/byte
16348988125: global: Predicted memory time = 20.5757 us
16349000625: global: Predicted memory time / byte = 0.00015686 us/byte
16349013125: global: Predicted memory time = 20.5757 us
16349025625: global: Predicted memory time / byte = 0.000157059 us/byte
16349038125: global: Predicted memory time = 10 us
16349050625: global: Predicted memory time / byte = 0 us/byte
16349063125: global: Predicted memory time = 0 us
16362585875: system.acctest.elem_matrix0_dma: SRC:0x00000000820488c0, DST:0x0000000024000020, LEN:65536
16362793125: global: Timer #0 stopped at tick 16362793125. Duration: 14594375
16362805625: global: Number of accelerators running = 1
16374448875: system.acctest.elem_matrix0_dma: Transfer completed in 11.863 us
16374576250: global: Timer #0 started at tick 16374576250
16374618125: global: Timer #1 started at tick 16374618125
16374759375: global: Timer #1 stopped at tick 16374759375. Duration: 141250
16375899500: system.acctest.elem_matrix0_dma: SRC:0x0000000022010020, DST:0x0000000024010020, LEN:65536
16376168750: global: Timer #0 stopped at tick 16376168750. Duration: 1592500
16376183125: global: Number of accelerators running = 1
16386160500: system.acctest.elem_matrix0_dma: Transfer completed in 10.261 us
16386279375: global: Timer #0 started at tick 16386279375
16386313750: global: Timer #1 started at tick 16386313750
16386455000: global: Timer #1 stopped at tick 16386455000. Duration: 141250
16388115625: global: Timer #0 stopped at tick 16388115625. Duration: 1836250
16388130000: global: Number of accelerators running = 1
********************************************************************************
system.acctest.elem_matrix0.compute
   ========= Performance Analysis =============
   Setup Time:                      3.487762seconds
   Simulation Time:                 72.801634seconds
   System Clock:                    1.000000GHz
   Transistor Latency:              1ns
   Runtime:                         10932 cycles
   Runtime:                         10.932000 us
   Stalls:                          1 cycles
   Executed Nodes:                  10930 cycles

********************************************************************************
   ========= Performance Analysis =================
   Setup Time:                      3487761821.000000ns
   Simulation Time:                 72801634060.000000ns
   System Clock:                    1.000000GHz
   Transistor Latency:              0ns
   Runtime:                         10932 cycles
   Runtime:                         0.000001 seconds
   Stalls:                          1 cycles
       Load Only:                   0 cycles
       Store Only:                  1 cycles
       Compute Only:                0 cycles
       Compute & Store:             0 cycles
       Load & Store:                0 cycles
       Load & Compute:              0 cycles
       Load & Compute & Store:      0 cycles
   Executed Nodes:                  10930 cycles
       Load Only:                   0 cycles
       Store Only:                  4 cycles
       Compute Only:                1 cycles
       Compute & Store:             21 cycles
       Load & Store:                0 cycles
       Load & Compute:              6 cycles
       Load & Compute & Store:      10898 cycles

   ========= Runtime FU's ========= (Max | Avg) ===
   Counter FU's:                      32 | 0.046838
   Integer Add/Sub FU's:               0 | 0.000000
   Integer Mul/Div FU's:               0 | 0.000000
   Integer Shifter FU's:               0 | 0.000000
   Integer Bitwise FU's:               1 | 0.000091
   Floating Point Float Add/Sub:       0 | 0.000000
   Floating Point Double Add/Sub:      0 | 0.000000
   Floating Point Float Mul/Div:      34 | 0.044252
   Floating Point Double Mul/Div:      0 | 0.000000
   0 Cycle Compare FU's:             102 | 0.046945
   GEP Instruction FU's:              96 | 0.046835
   Type Conversion FU's:               7 | 0.006782

   ========= Static FU's ==========================
   Counter FU's:                    0
   Integer Add/Sub FU's:            0
   Integer Mul/Div FU's:            0
   Integer Shifter FU's:            0
   Integer Bitwise FU's:            0
   Floating Point Float Add/Sub:    0
   Floating Point Double Add/Sub:   0
   Floating Point Float Mul/Div:    0
   Floating Point Double Mul/Div:   0
   0 Cycle Compare FU's:            0
   GEP Instruction FU's:            0
   Type Conversion FU's:            0
   Other:                           0

   ========= Pipeline Register Usage =============
   Total Number of Registers:       5641
   Max Register Usage Per Cycle:    137
   Avg Register Usage Per Cycle:    12.130992
   Avg Register Size (Bytes):       5.980606

   ========= Memory Configuration =================
   Cache Bus Ports:                 0
   Shared Cache Size:               0kB
   Local Bus Ports:                 0
   Private SPM Size:                256kB
   Private Read Ports:              0
   Private Write Ports:             0
   Private Read Bus Width:          64
   Private Write Bus Width:         64
       Memory Reads:                0
       Memory Writes:               0
   ========= Power Analysis ======================
   FU Leakage Power:                0.045377 mW 
   FU Dynamic Power:                0.142576 mW 
   FU Total Power:                  0.187953 mW 

   Registers Leakage Power:          0.005281 mW 
   Registers Dynamic Power:          0.015326 mW 
       Register Reads (Bits):        132616
       Register Writes (Bits):       133658
   Registers Total Power:            0.020607 mW

   SPM Leakage Power:               0.104100 mW
   SPM Read Dynamic Power:          7.187986 mW
   SPM Write Dynamic Power:         5.103456 mW
   SPM Total Power:                 12.395543 mW

   Cache Leakage Power:             0.000000 mW
   Cache Read Dynamic Power:        0.000000 mW
   Cache Write Dynamic Power:       0.000000 mW
   Cache Total Power:               0.000000 mW

   Accelerator Power:               0.208559 mW
   Accelerator Power (SPM):         12.604103 mW
   Accelerator Power (Cache):       0.208559 mW

   ========= Area Analysis =======================
   FU Area:                         5472.068359 um^2 (0.005472 mm^2)
   Register Area:                   429.271088 um^2 (0.000429 mm^2)
   SPM Area:                        2177.365505 um^2 (0.002177 mm^2)
   Cache Area:                      0.000000 um^2 (0.000000 mm^2)

   Accelerator Area:                5901.339355 um^2 (0.005901 mm^2)
   Accelerator Area (SPM):          8078.704860 um^2 (0.008079 mm^2)
   Accelerator Area (Cache):        5901.339355 um^2 (0.005901 mm^2)

   ========= SPM Resizing  =======================
   SPM Optimized Leakage Power:     0.004248 mW
   SPM Opt Area:                    178.524902 um^2

16398894375: global: Timer #0 started at tick 16398894375
16412232375: system.acctest.elem_matrix0_dma: SRC:0x0000000024020020, DST:0x00000000820488c0, LEN:65536
16412590000: global: Timer #0 stopped at tick 16412590000. Duration: 13695625
16412604375: global: Number of accelerators running = 1
16418610375: system.acctest.elem_matrix0_dma: Transfer completed in 6.378 us
16418694375: global: Timer #0 started at tick 16418694375
16418746250: global: Timer #1 started at tick 16418746250
16418901250: global: Timer #1 stopped at tick 16418901250. Duration: 155000
16419227500: global: DAG ID = 0
16419241250: global: Node ID = 21
16419272500: global: DAG execution time = 16294
16419291250: global: DAG deadline difference = -373
16419310000: global: Node deadline difference = -373
16419322500: global: Predicted memory time / byte = 0.000157059 us/byte
16419335000: global: Predicted memory time = 30.879 us
16419347500: global: Predicted memory time / byte = 0.000157059 us/byte
16419367500: global: Predicted memory time = 30.879 us
16419380000: global: Predicted memory time / byte = 0.000169273 us/byte
16419400000: global: Predicted memory time = 21 us
16419412500: global: Predicted memory time / byte = 9.73206e-05 us/byte
16419425000: global: Predicted memory time = 6 us
16419535000: global: Timer #0 stopped at tick 16419535000. Duration: 840625
16419549375: global: Number of accelerators running = 0
16419628125: global: Number of forwards = 21
16419687500: global: Number of colocations = 0
16419706250: global: Number of DAG deadlines met = 1
16419724375: global: Number of node deadlines met = 22
16419841250: global: Total predicted compute time = 15615 us
Exiting @ tick 16419963125 because m5_exit instruction encountered
