gem5 Simulator System.  http://gem5.org
gem5 is copyrighted software; use the --copyright option for details.

gem5 compiled Jun 12 2023 18:40:01
gem5 started Jul 14 2023 12:14:40
gem5 executing on node4x10a.cs.rochester.edu, pid 51752
command line: /u/sgupta45/gem5-SALAM/build/ARM/gem5_bus.opt --debug-flags=HWACC,CommInterface,LLVMInterface,StreamDma,NoncoherentDma,TickTimer,SchedulerStats --outdir=BM_ARM_OUT/comb_pred_3/canny_1_deblur_1_gru_1_harris_0_lstm_0_LAX_MEM_PRED_NO_PRED_dm_false configs/SALAM/scheduler.py --mem-size=4GB --mem-type=LPDDR5_6400_1x16_BG_BL32 --kernel=/u/sgupta45/gem5-SALAM/benchmarks/scheduler/sw/bin_comb_pred_3/canny_1_deblur_1_gru_1_harris_0_lstm_0_LAX_MEM_PRED_NO_PRED_dm_false.elf --vans-config-path=/u/sgupta45/VANS/config --disk-image=/u/sgupta45/gem5-SALAM/baremetal/common/fake.iso --machine-type=VExpress_GEM5_V1 --dtb-file=none --bare-metal --cpu-type=ex5_LITTLE --cpu-clock=1.6GHz --accpath=/u/sgupta45/gem5-SALAM/benchmarks --caches --cacheline_size=64 --l1d_size=32kB --l1d_assoc=4 --l1i_size=32kB --l1i_assoc=2

info: Standard input is not a terminal, disabling listeners.
Global frequency set at 1000000000000 ticks per second
Cycle Counts Loaded!
Cycle Counts Loaded!
Cycle Counts Loaded!
Cycle Counts Loaded!
Cycle Counts Loaded!
Cycle Counts Loaded!
Cycle Counts Loaded!
Cycle Counts Loaded!
Cycle Counts Loaded!
Cycle Counts Loaded!
Cycle Counts Loaded!
**** REAL SIMULATION ****
3636680625: global: Timer #2 started at tick 3636680625
3637712500: global: Timer #2 stopped at tick 3637712500. Duration: 1031875
3641436250: global: Timer #2 started at tick 3641436250
3641963750: global: Timer #2 stopped at tick 3641963750. Duration: 527500
3648179375: global: Timer #2 started at tick 3648179375
3648606875: global: Timer #2 stopped at tick 3648606875. Duration: 427500
3692565875: system.acctest.elem_matrix0_dma: SRC:0x0000000082290bc0, DST:0x0000000024000020, LEN:65536
3697574000: system.acctest.isp0_dma: SRC:0x000000008210e780, DST:0x0000000027000020, LEN:16900
3698055000: global: Number of accelerators running = 2
3701332000: system.acctest.isp0_dma: Transfer completed in 3.758 us
3701994375: global: Timer #0 started at tick 3701994375
3703424375: global: Timer #1 started at tick 3703424375
3703671875: global: Timer #1 stopped at tick 3703671875. Duration: 247500
3705225875: system.acctest.elem_matrix0_dma: Transfer completed in 12.66 us
3705961250: global: Timer #0 stopped at tick 3705961250. Duration: 3966875
3706023125: global: Number of accelerators running = 2
3706356250: global: Timer #0 started at tick 3706356250
3706987500: global: Timer #1 started at tick 3706987500
3707012500: global: Timer #1 stopped at tick 3707012500. Duration: 25000
3721527375: system.acctest.elem_matrix0_dma: SRC:0x0000000082190a00, DST:0x0000000024010020, LEN:65536
3721848125: global: Timer #0 stopped at tick 3721848125. Duration: 15491875
3721864375: global: Number of accelerators running = 2
3733508375: system.acctest.elem_matrix0_dma: Transfer completed in 11.981 us
3733676250: global: Timer #0 started at tick 3733676250
3734173125: global: Timer #1 started at tick 3734173125
3734195000: global: Timer #1 stopped at tick 3734195000. Duration: 21875
3736078125: global: Timer #0 stopped at tick 3736078125. Duration: 2401875
3736094375: global: Number of accelerators running = 2
********************************************************************************
system.acctest.isp0.compute
   ========= Performance Analysis =============
   Setup Time:                      0.154075seconds
   Simulation Time:                 424.384seconds
   System Clock:                    1GHz
   Transistor Latency:              1ns
   Runtime:                         34882 cycles
   Runtime:                         34.882 us
   Stalls:                          1 cycles
   Executed Nodes:                  34880 cycles

********************************************************************************
   ========= Performance Analysis =================
   Setup Time:                      1.54075e+08ns
   Simulation Time:                 4.24384e+11ns
   System Clock:                    1GHz
   Transistor Latency:              0ns
   Runtime:                         34882 cycles
   Runtime:                         3.4882e-06 seconds
   Stalls:                          1 cycles
       Load Only:                   0 cycles
       Store Only:                  1 cycles
       Compute Only:                0 cycles
       Compute & Store:             0 cycles
       Load & Store:                0 cycles
       Load & Compute:              0 cycles
       Load & Compute & Store:      0 cycles
   Executed Nodes:                  34880 cycles
       Load Only:                   0 cycles
       Store Only:                  1 cycles
       Compute Only:                3453 cycles
       Compute & Store:             19014 cycles
       Load & Store:                0 cycles
       Load & Compute:              2467 cycles
       Load & Compute & Store:      9945 cycles

   ========= Runtime FU's ========= (Max | Avg) ===
   Counter FU's:                      10 | 0.118075
   Integer Add/Sub FU's:              76 | 0.082082
   Integer Mul/Div FU's:              11 | 0.043888
   Integer Shifter FU's:              42 | 0.055974
   Integer Bitwise FU's:               4 | 0.059443
   Floating Point Float Add/Sub:      53 | 0.116839
   Floating Point Double Add/Sub:      0 | 0.000000
   Floating Point Float Mul/Div:      76 | 0.625626
   Floating Point Double Mul/Div:      0 | 0.000000
   0 Cycle Compare FU's:              85 | 0.664984
   GEP Instruction FU's:              33 | 0.117424
   Type Conversion FU's:             110 | 0.379700

   ========= Static FU's ==========================
   Counter FU's:                    0
   Integer Add/Sub FU's:            0
   Integer Mul/Div FU's:            0
   Integer Shifter FU's:            0
   Integer Bitwise FU's:            0
   Floating Point Float Add/Sub:    0
   Floating Point Double Add/Sub:   0
   Floating Point Float Mul/Div:    0
   Floating Point Double Mul/Div:   0
   0 Cycle Compare FU's:            0
   GEP Instruction FU's:            0
   Type Conversion FU's:            0
   Other:                           0

   ========= Pipeline Register Usage =============
   Total Number of Registers:       1620
   Max Register Usage Per Cycle:    151
   Avg Register Usage Per Cycle:    58.744711
   Avg Register Size (Bytes):       5.073357

   ========= Memory Configuration =================
   Cache Bus Ports:                 0
   Shared Cache Size:               0kB
   Local Bus Ports:                 0
   Private SPM Size:                112kB
   Private Read Ports:              0
   Private Write Ports:             0
   Private Read Bus Width:          64
   Private Write Bus Width:         64
       Memory Reads:                0
       Memory Writes:               0
   ========= Power Analysis ======================
   FU Leakage Power:                1.637787 mW 
   FU Dynamic Power:                9.655087 mW 
   FU Total Power:                  11.292874 mW 

   Registers Leakage Power:          0.021654 mW 
   Registers Dynamic Power:          3.085961 mW 
       Register Reads (Bits):        2049133
       Register Writes (Bits):       2049168
   Registers Total Power:            3.107615 mW

   SPM Leakage Power:               0.061081 mW
   SPM Read Dynamic Power:          11.103730 mW
   SPM Write Dynamic Power:         7.385230 mW
   SPM Total Power:                 18.550041 mW

   Cache Leakage Power:             0.000000 mW
   Cache Read Dynamic Power:        0.000000 mW
   Cache Write Dynamic Power:       0.000000 mW
   Cache Total Power:               0.000000 mW

   Accelerator Power:               14.400490 mW
   Accelerator Power (SPM):         32.950531 mW
   Accelerator Power (Cache):       14.400490 mW

   ========= Area Analysis =======================
   FU Area:                         176023.796875 um^2 (0.176024 mm^2)
   Register Area:                   1760.064941 um^2 (0.001760 mm^2)
   SPM Area:                        2165.394891 um^2 (0.002165 mm^2)
   Cache Area:                      0.000000 um^2 (0.000000 mm^2)

   Accelerator Area:                177783.859375 um^2 (0.177784 mm^2)
   Accelerator Area (SPM):          179949.254266 um^2 (0.179949 mm^2)
   Accelerator Area (Cache):        177783.859375 um^2 (0.177784 mm^2)

   ========= SPM Resizing  =======================
   SPM Optimized Leakage Power:     0.005964 mW
   SPM Opt Area:                    422.108128 um^2

3740288750: global: Timer #0 started at tick 3740288750
3740668750: global: Timer #2 started at tick 3740668750
3741570000: global: Timer #2 stopped at tick 3741570000. Duration: 901250
3742298125: global: DAG ID = 1
3742317500: global: Node ID = 0
3742335625: global: Node deadline difference = -230
3742397500: global: Predicted memory time / byte = 7.27596e-05 us/byte
3742415625: global: Predicted memory time = 1.22964 us
3742433750: global: Predicted memory time / byte = 7.27596e-05 us/byte
3742451875: global: Predicted memory time = 3.57628 us
3742470000: global: Predicted memory time / byte = 0.000266805 us/byte
3742531250: global: Predicted memory time = 4.509 us
3742549375: global: Predicted memory time / byte = 0 us/byte
3742567500: global: Predicted memory time = 0 us
3742585625: global: Predicted memory access size = 0
3742603750: global: Predicted memory access size = 16900
3742666250: global: Predicted memory access size = 0
3742685000: global: Predicted memory access size = 0
3743915875: system.acctest.grayscale0_dma: SRC:0x0000000027004224, DST:0x0000000025000020, LEN:49152
********************************************************************************
system.acctest.elem_matrix0.compute
   ========= Performance Analysis =============
   Setup Time:                      3.433845seconds
   Simulation Time:                 174.226461seconds
   System Clock:                    1.000000GHz
   Transistor Latency:              1ns
   Runtime:                         10932 cycles
   Runtime:                         10.932000 us
   Stalls:                          0 cycles
   Executed Nodes:                  10931 cycles

********************************************************************************
   ========= Performance Analysis =================
   Setup Time:                      3433845462.000000ns
   Simulation Time:                 174226461206.000000ns
   System Clock:                    1.000000GHz
   Transistor Latency:              0ns
   Runtime:                         10932 cycles
   Runtime:                         0.000001 seconds
   Stalls:                          0 cycles
       Load Only:                   0 cycles
       Store Only:                  0 cycles
       Compute Only:                0 cycles
       Compute & Store:             0 cycles
       Load & Store:                0 cycles
       Load & Compute:              0 cycles
       Load & Compute & Store:      0 cycles
   Executed Nodes:                  10931 cycles
       Load Only:                   0 cycles
       Store Only:                  5 cycles
       Compute Only:                1 cycles
       Compute & Store:             21 cycles
       Load & Store:                0 cycles
       Load & Compute:              7 cycles
       Load & Compute & Store:      10897 cycles

   ========= Runtime FU's ========= (Max | Avg) ===
   Counter FU's:                      32 | 0.046838
   Integer Add/Sub FU's:               0 | 0.000000
   Integer Mul/Div FU's:               0 | 0.000000
   Integer Shifter FU's:               0 | 0.000000
   Integer Bitwise FU's:               1 | 0.000091
   Floating Point Float Add/Sub:      34 | 0.044252
   Floating Point Double Add/Sub:      0 | 0.000000
   Floating Point Float Mul/Div:       0 | 0.000000
   Floating Point Double Mul/Div:      0 | 0.000000
   0 Cycle Compare FU's:             102 | 0.046974
   GEP Instruction FU's:              96 | 0.046835
   Type Conversion FU's:               7 | 0.006782

   ========= Static FU's ==========================
   Counter FU's:                    0
   Integer Add/Sub FU's:            0
   Integer Mul/Div FU's:            0
   Integer Shifter FU's:            0
   Integer Bitwise FU's:            0
   Floating Point Float Add/Sub:    0
   Floating Point Double Add/Sub:   0
   Floating Point Float Mul/Div:    0
   Floating Point Double Mul/Div:   0
   0 Cycle Compare FU's:            0
   GEP Instruction FU's:            0
   Type Conversion FU's:            0
   Other:                           0

   ========= Pipeline Register Usage =============
   Total Number of Registers:       5641
   Max Register Usage Per Cycle:    138
   Avg Register Usage Per Cycle:    12.130992
   Avg Register Size (Bytes):       5.980606

   ========= Memory Configuration =================
   Cache Bus Ports:                 0
   Shared Cache Size:               0kB
   Local Bus Ports:                 0
   Private SPM Size:                256kB
   Private Read Ports:              0
   Private Write Ports:             0
   Private Read Bus Width:          64
   Private Write Bus Width:         64
       Memory Reads:                0
       Memory Writes:               0
   ========= Power Analysis ======================
   FU Leakage Power:                0.519269 mW 
   FU Dynamic Power:                0.154621 mW 
   FU Total Power:                  0.673890 mW 

   Registers Leakage Power:          0.005281 mW 
   Registers Dynamic Power:          0.015326 mW 
       Register Reads (Bits):        132616
       Register Writes (Bits):       133658
   Registers Total Power:            0.020607 mW

   SPM Leakage Power:               0.104100 mW
   SPM Read Dynamic Power:          1.997266 mW
   SPM Write Dynamic Power:         0.953321 mW
   SPM Total Power:                 3.054688 mW

   Cache Leakage Power:             0.000000 mW
   Cache Read Dynamic Power:        0.000000 mW
   Cache Write Dynamic Power:       0.000000 mW
   Cache Total Power:               0.000000 mW

   Accelerator Power:               0.694497 mW
   Accelerator Power (SPM):         3.749184 mW
   Accelerator Power (Cache):       0.694497 mW

   ========= Area Analysis =======================
   FU Area:                         70212.562500 um^2 (0.070213 mm^2)
   Register Area:                   429.271088 um^2 (0.000429 mm^2)
   SPM Area:                        2177.365505 um^2 (0.002177 mm^2)
   Cache Area:                      0.000000 um^2 (0.000000 mm^2)

   Accelerator Area:                70641.835938 um^2 (0.070642 mm^2)
   Accelerator Area (SPM):          72819.201442 um^2 (0.072819 mm^2)
   Accelerator Area (Cache):        70641.835938 um^2 (0.070642 mm^2)

   ========= SPM Resizing  =======================
   SPM Optimized Leakage Power:     0.004248 mW
   SPM Opt Area:                    178.524902 um^2

3748665000: system.acctest.isp0_dma: SRC:0x0000000082018d40, DST:0x0000000027000020, LEN:16900
3748856875: global: Timer #0 stopped at tick 3748856875. Duration: 8568125
3748873125: global: Number of accelerators running = 3
3749028750: global: Timer #0 started at tick 3749028750
3749375625: global: Timer #2 started at tick 3749375625
3749710625: global: Timer #2 stopped at tick 3749710625. Duration: 335000
3749921875: global: Timer #2 started at tick 3749921875
3750348750: global: Timer #2 stopped at tick 3750348750. Duration: 426875
3752054000: system.acctest.isp0_dma: Transfer completed in 3.389 us
3753479875: system.acctest.grayscale0_dma: Transfer completed in 9.564 us
3763855875: system.acctest.elem_matrix0_dma: SRC:0x0000000024020020, DST:0x00000000821a0a00, LEN:65536
3764313125: global: Timer #0 stopped at tick 3764313125. Duration: 15284375
3764329375: global: Number of accelerators running = 3
3764444375: global: Timer #0 started at tick 3764444375
3764956250: global: Timer #1 started at tick 3764956250
3764973125: global: Timer #1 stopped at tick 3764973125. Duration: 16875
3766343750: global: Timer #0 stopped at tick 3766343750. Duration: 1899375
3766360000: global: Number of accelerators running = 3
3766624375: global: Timer #0 started at tick 3766624375
3767113750: global: Timer #1 started at tick 3767113750
3767130625: global: Timer #1 stopped at tick 3767130625. Duration: 16875
3768877500: global: Timer #0 stopped at tick 3768877500. Duration: 2253125
3768980000: global: Number of accelerators running = 3
3770211875: system.acctest.elem_matrix0_dma: Transfer completed in 6.356 us
3770351875: global: Timer #0 started at tick 3770351875
3770935625: global: Timer #1 started at tick 3770935625
3771053125: global: Timer #1 stopped at tick 3771053125. Duration: 117500
3771674375: global: DAG ID = 2
3771738125: global: Node ID = 0
3771812500: global: Node deadline difference = -2227
3771830625: global: Predicted memory time / byte = 7.27596e-05 us/byte
3771848750: global: Predicted memory time = 9.53674 us
3771868750: global: Predicted memory time / byte = 7.27596e-05 us/byte
3771886875: global: Predicted memory time = 4.76837 us
3771905000: global: Predicted memory time / byte = 0.000198158 us/byte
3771923125: global: Predicted memory time = 25.973 us
3771941250: global: Predicted memory time / byte = 0.000100327 us/byte
3771959375: global: Predicted memory time = 6.575 us
3771979375: global: Predicted memory access size = 0
3771997500: global: Predicted memory access size = 131072
3772015625: global: Predicted memory access size = 0
3772033750: global: Predicted memory access size = 65536
********************************************************************************
system.acctest.grayscale0.compute
   ========= Performance Analysis =============
   Setup Time:                      0.009135seconds
   Simulation Time:                 272.462735seconds
   System Clock:                    1.000000GHz
   Transistor Latency:              1ns
   Runtime:                         10263 cycles
   Runtime:                         10.263000 us
   Stalls:                          1 cycles
   Executed Nodes:                  10261 cycles

********************************************************************************
   ========= Performance Analysis =================
   Setup Time:                      9135245.000000ns
   Simulation Time:                 272462734700.000000ns
   System Clock:                    1.000000GHz
   Transistor Latency:              0ns
   Runtime:                         10263 cycles
   Runtime:                         0.000001 seconds
   Stalls:                          1 cycles
       Load Only:                   0 cycles
       Store Only:                  1 cycles
       Compute Only:                0 cycles
       Compute & Store:             0 cycles
       Load & Store:                0 cycles
       Load & Compute:              0 cycles
       Load & Compute & Store:      0 cycles
   Executed Nodes:                  10261 cycles
       Load Only:                   0 cycles
       Store Only:                  1 cycles
       Compute Only:                88 cycles
       Compute & Store:             344 cycles
       Load & Store:                0 cycles
       Load & Compute:              1981 cycles
       Load & Compute & Store:      7847 cycles

   ========= Runtime FU's ========= (Max | Avg) ===
   Counter FU's:                      24 | 0.199556
   Integer Add/Sub FU's:               0 | 0.000000
   Integer Mul/Div FU's:               8 | 0.199552
   Integer Shifter FU's:               0 | 0.000000
   Integer Bitwise FU's:               1 | 0.000097
   Floating Point Float Add/Sub:      49 | 0.114264
   Floating Point Double Add/Sub:      0 | 0.000000
   Floating Point Float Mul/Div:      42 | 0.114129
   Floating Point Double Mul/Div:      0 | 0.000000
   0 Cycle Compare FU's:               9 | 0.066626
   GEP Instruction FU's:              36 | 0.177452
   Type Conversion FU's:              76 | 0.401969

   ========= Static FU's ==========================
   Counter FU's:                    0
   Integer Add/Sub FU's:            0
   Integer Mul/Div FU's:            0
   Integer Shifter FU's:            0
   Integer Bitwise FU's:            0
   Floating Point Float Add/Sub:    0
   Floating Point Double Add/Sub:   0
   Floating Point Float Mul/Div:    0
   Floating Point Double Mul/Div:   0
   0 Cycle Compare FU's:            0
   GEP Instruction FU's:            0
   Type Conversion FU's:            0
   Other:                           0

   ========= Pipeline Register Usage =============
   Total Number of Registers:       235
   Max Register Usage Per Cycle:    90
   Avg Register Usage Per Cycle:    33.924291
   Avg Register Size (Bytes):       5.841147

   ========= Memory Configuration =================
   Cache Bus Ports:                 0
   Shared Cache Size:               0kB
   Local Bus Ports:                 0
   Private SPM Size:                176kB
   Private Read Ports:              0
   Private Write Ports:             0
   Private Read Bus Width:          64
   Private Write Bus Width:         64
       Memory Reads:                0
       Memory Writes:               0
   ========= Power Analysis ======================
   FU Leakage Power:                1.178269 mW 
   FU Dynamic Power:                0.617392 mW 
   FU Total Power:                  1.795662 mW 

   Registers Leakage Power:          0.014185 mW 
   Registers Dynamic Power:          0.101057 mW 
       Register Reads (Bits):        348165
       Register Writes (Bits):       348168
   Registers Total Power:            0.115242 mW

   SPM Leakage Power:               0.089881 mW
   SPM Read Dynamic Power:          6.997296 mW
   SPM Write Dynamic Power:         2.062375 mW
   SPM Total Power:                 9.149552 mW

   Cache Leakage Power:             0.000000 mW
   Cache Read Dynamic Power:        0.000000 mW
   Cache Write Dynamic Power:       0.000000 mW
   Cache Total Power:               0.000000 mW

   Accelerator Power:               1.910904 mW
   Accelerator Power (SPM):         11.060456 mW
   Accelerator Power (Cache):       1.910904 mW

   ========= Area Analysis =======================
   FU Area:                         143348.187500 um^2 (0.143348 mm^2)
   Register Area:                   1152.968140 um^2 (0.001153 mm^2)
   SPM Area:                        3573.642862 um^2 (0.003574 mm^2)
   Cache Area:                      0.000000 um^2 (0.000000 mm^2)

   Accelerator Area:                144501.156250 um^2 (0.144501 mm^2)
   Accelerator Area (SPM):          148074.799112 um^2 (0.148075 mm^2)
   Accelerator Area (Cache):        144501.156250 um^2 (0.144501 mm^2)

   ========= SPM Resizing  =======================
   SPM Optimized Leakage Power:     0.003633 mW
   SPM Opt Area:                    364.024374 um^2

3785744500: system.acctest.elem_matrix0_dma: SRC:0x0000000082150880, DST:0x0000000024000020, LEN:65536
3785956250: global: Timer #0 stopped at tick 3785956250. Duration: 15604375
3785972500: global: Number of accelerators running = 3
3786206875: global: Timer #0 started at tick 3786206875
3786613750: global: Timer #2 started at tick 3786613750
3787247500: global: Timer #2 stopped at tick 3787247500. Duration: 633750
3797744500: system.acctest.elem_matrix0_dma: Transfer completed in 12 us
********************************************************************************
system.acctest.isp0.compute
   ========= Performance Analysis =============
   Setup Time:                      0.424000seconds
   Simulation Time:                 620.421367seconds
   System Clock:                    1.000000GHz
   Transistor Latency:              1ns
   Runtime:                         34882 cycles
   Runtime:                         34.882000 us
   Stalls:                          1 cycles
   Executed Nodes:                  34880 cycles

********************************************************************************
   ========= Performance Analysis =================
   Setup Time:                      423999719.000000ns
   Simulation Time:                 620421367061.000000ns
   System Clock:                    1.000000GHz
   Transistor Latency:              0ns
   Runtime:                         34882 cycles
   Runtime:                         0.000003 seconds
   Stalls:                          1 cycles
       Load Only:                   0 cycles
       Store Only:                  1 cycles
       Compute Only:                0 cycles
       Compute & Store:             0 cycles
       Load & Store:                0 cycles
       Load & Compute:              0 cycles
       Load & Compute & Store:      0 cycles
   Executed Nodes:                  34880 cycles
       Load Only:                   0 cycles
       Store Only:                  1 cycles
       Compute Only:                3453 cycles
       Compute & Store:             19014 cycles
       Load & Store:                0 cycles
       Load & Compute:              2467 cycles
       Load & Compute & Store:      9945 cycles

   ========= Runtime FU's ========= (Max | Avg) ===
   Counter FU's:                      10 | 0.118075
   Integer Add/Sub FU's:              76 | 0.082082
   Integer Mul/Div FU's:              11 | 0.043888
   Integer Shifter FU's:              42 | 0.055974
   Integer Bitwise FU's:               4 | 0.059443
   Floating Point Float Add/Sub:      53 | 0.116839
   Floating Point Double Add/Sub:      0 | 0.000000
   Floating Point Float Mul/Div:      76 | 0.625626
   Floating Point Double Mul/Div:      0 | 0.000000
   0 Cycle Compare FU's:              85 | 0.664984
   GEP Instruction FU's:              33 | 0.117424
   Type Conversion FU's:             110 | 0.379700

   ========= Static FU's ==========================
   Counter FU's:                    0
   Integer Add/Sub FU's:            0
   Integer Mul/Div FU's:            0
   Integer Shifter FU's:            0
   Integer Bitwise FU's:            0
   Floating Point Float Add/Sub:    0
   Floating Point Double Add/Sub:   0
   Floating Point Float Mul/Div:    0
   Floating Point Double Mul/Div:   0
   0 Cycle Compare FU's:            0
   GEP Instruction FU's:            0
   Type Conversion FU's:            0
   Other:                           0

   ========= Pipeline Register Usage =============
   Total Number of Registers:       1620
   Max Register Usage Per Cycle:    151
   Avg Register Usage Per Cycle:    58.744711
   Avg Register Size (Bytes):       5.073357

   ========= Memory Configuration =================
   Cache Bus Ports:                 0
   Shared Cache Size:               0kB
   Local Bus Ports:                 0
   Private SPM Size:                112kB
   Private Read Ports:              0
   Private Write Ports:             0
   Private Read Bus Width:          64
   Private Write Bus Width:         64
       Memory Reads:                0
       Memory Writes:               0
   ========= Power Analysis ======================
   FU Leakage Power:                1.637787 mW 
   FU Dynamic Power:                9.655087 mW 
   FU Total Power:                  11.292874 mW 

   Registers Leakage Power:          0.021654 mW 
   Registers Dynamic Power:          3.085961 mW 
       Register Reads (Bits):        2049133
       Register Writes (Bits):       2049168
   Registers Total Power:            3.107615 mW

   SPM Leakage Power:               0.061081 mW
   SPM Read Dynamic Power:          15.102444 mW
   SPM Write Dynamic Power:         10.618341 mW
   SPM Total Power:                 25.781867 mW

   Cache Leakage Power:             0.000000 mW
   Cache Read Dynamic Power:        0.000000 mW
   Cache Write Dynamic Power:       0.000000 mW
   Cache Total Power:               0.000000 mW

   Accelerator Power:               14.400490 mW
   Accelerator Power (SPM):         40.182357 mW
   Accelerator Power (Cache):       14.400490 mW

   ========= Area Analysis =======================
   FU Area:                         176023.796875 um^2 (0.176024 mm^2)
   Register Area:                   1760.064941 um^2 (0.001760 mm^2)
   SPM Area:                        2165.394891 um^2 (0.002165 mm^2)
   Cache Area:                      0.000000 um^2 (0.000000 mm^2)

   Accelerator Area:                177783.859375 um^2 (0.177784 mm^2)
   Accelerator Area (SPM):          179949.254266 um^2 (0.179949 mm^2)
   Accelerator Area (Cache):        177783.859375 um^2 (0.177784 mm^2)

   ========= SPM Resizing  =======================
   SPM Optimized Leakage Power:     0.005964 mW
   SPM Opt Area:                    422.108128 um^2

3801261625: system.acctest.grayscale0_dma: SRC:0x000000002500c020, DST:0x000000008211eb40, LEN:65536
3802944000: system.acctest.convolution0_dma: SRC:0x000000002500c020, DST:0x0000000022000020, LEN:65536
3803379375: global: Timer #0 stopped at tick 3803379375. Duration: 17172500
3803395625: global: Number of accelerators running = 4
3803643750: global: Timer #0 started at tick 3803643750
3804134375: global: Timer #1 started at tick 3804134375
3804151250: global: Timer #1 stopped at tick 3804151250. Duration: 16875
3806361250: global: Timer #0 stopped at tick 3806361250. Duration: 2717500
3806420625: global: Number of accelerators running = 4
3806665000: global: Timer #0 started at tick 3806665000
3807098750: global: Timer #2 started at tick 3807098750
3807671250: global: Timer #2 stopped at tick 3807671250. Duration: 572500
3812717625: system.acctest.grayscale0_dma: Transfer completed in 11.456 us
3816344000: system.acctest.convolution0_dma: Transfer completed in 13.4 us
********************************************************************************
system.acctest.elem_matrix0.compute
   ========= Performance Analysis =============
   Setup Time:                      7.482333seconds
   Simulation Time:                 98.760090seconds
   System Clock:                    1.000000GHz
   Transistor Latency:              1ns
   Runtime:                         10932 cycles
   Runtime:                         10.932000 us
   Stalls:                          1 cycles
   Executed Nodes:                  10930 cycles

********************************************************************************
   ========= Performance Analysis =================
   Setup Time:                      7482332671.000000ns
   Simulation Time:                 98760090317.000000ns
   System Clock:                    1.000000GHz
   Transistor Latency:              0ns
   Runtime:                         10932 cycles
   Runtime:                         0.000001 seconds
   Stalls:                          1 cycles
       Load Only:                   0 cycles
       Store Only:                  1 cycles
       Compute Only:                0 cycles
       Compute & Store:             0 cycles
       Load & Store:                0 cycles
       Load & Compute:              0 cycles
       Load & Compute & Store:      0 cycles
   Executed Nodes:                  10930 cycles
       Load Only:                   0 cycles
       Store Only:                  4 cycles
       Compute Only:                1 cycles
       Compute & Store:             21 cycles
       Load & Store:                0 cycles
       Load & Compute:              6 cycles
       Load & Compute & Store:      10898 cycles

   ========= Runtime FU's ========= (Max | Avg) ===
   Counter FU's:                      32 | 0.046838
   Integer Add/Sub FU's:               0 | 0.000000
   Integer Mul/Div FU's:               0 | 0.000000
   Integer Shifter FU's:               0 | 0.000000
   Integer Bitwise FU's:               1 | 0.000091
   Floating Point Float Add/Sub:       0 | 0.000000
   Floating Point Double Add/Sub:      0 | 0.000000
   Floating Point Float Mul/Div:      34 | 0.044252
   Floating Point Double Mul/Div:      0 | 0.000000
   0 Cycle Compare FU's:             102 | 0.046945
   GEP Instruction FU's:              96 | 0.046835
   Type Conversion FU's:               7 | 0.006782

   ========= Static FU's ==========================
   Counter FU's:                    0
   Integer Add/Sub FU's:            0
   Integer Mul/Div FU's:            0
   Integer Shifter FU's:            0
   Integer Bitwise FU's:            0
   Floating Point Float Add/Sub:    0
   Floating Point Double Add/Sub:   0
   Floating Point Float Mul/Div:    0
   Floating Point Double Mul/Div:   0
   0 Cycle Compare FU's:            0
   GEP Instruction FU's:            0
   Type Conversion FU's:            0
   Other:                           0

   ========= Pipeline Register Usage =============
   Total Number of Registers:       5641
   Max Register Usage Per Cycle:    137
   Avg Register Usage Per Cycle:    12.130992
   Avg Register Size (Bytes):       5.980606

   ========= Memory Configuration =================
   Cache Bus Ports:                 0
   Shared Cache Size:               0kB
   Local Bus Ports:                 0
   Private SPM Size:                256kB
   Private Read Ports:              0
   Private Write Ports:             0
   Private Read Bus Width:          64
   Private Write Bus Width:         64
       Memory Reads:                0
       Memory Writes:               0
   ========= Power Analysis ======================
   FU Leakage Power:                0.045377 mW 
   FU Dynamic Power:                0.142576 mW 
   FU Total Power:                  0.187953 mW 

   Registers Leakage Power:          0.005281 mW 
   Registers Dynamic Power:          0.015326 mW 
       Register Reads (Bits):        132616
       Register Writes (Bits):       133658
   Registers Total Power:            0.020607 mW

   SPM Leakage Power:               0.104100 mW
   SPM Read Dynamic Power:          2.785289 mW
   SPM Write Dynamic Power:         2.044305 mW
   SPM Total Power:                 4.933694 mW

   Cache Leakage Power:             0.000000 mW
   Cache Read Dynamic Power:        0.000000 mW
   Cache Write Dynamic Power:       0.000000 mW
   Cache Total Power:               0.000000 mW

   Accelerator Power:               0.208559 mW
   Accelerator Power (SPM):         5.142254 mW
   Accelerator Power (Cache):       0.208559 mW

   ========= Area Analysis =======================
   FU Area:                         5472.068359 um^2 (0.005472 mm^2)
   Register Area:                   429.271088 um^2 (0.000429 mm^2)
   SPM Area:                        2177.365505 um^2 (0.002177 mm^2)
   Cache Area:                      0.000000 um^2 (0.000000 mm^2)

   Accelerator Area:                5901.339355 um^2 (0.005901 mm^2)
   Accelerator Area (SPM):          8078.704860 um^2 (0.008079 mm^2)
   Accelerator Area (Cache):        5901.339355 um^2 (0.005901 mm^2)

   ========= SPM Resizing  =======================
   SPM Optimized Leakage Power:     0.004248 mW
   SPM Opt Area:                    178.524902 um^2

3818205875: system.acctest.isp0_dma: SRC:0x0000000027010224, DST:0x000000008201cf80, LEN:49152
3818591875: global: Timer #0 stopped at tick 3818591875. Duration: 11926875
3818608125: global: Number of accelerators running = 4
3818730625: global: Timer #0 started at tick 3818730625
3819050000: global: Timer #1 started at tick 3819050000
3819070625: global: Timer #1 stopped at tick 3819070625. Duration: 20625
3819896250: global: DAG ID = 1
3819910000: global: Node ID = 1
3819934375: global: Node deadline difference = -190
3819946875: global: Predicted memory time / byte = 7.27596e-05 us/byte
3819959375: global: Predicted memory time = 3.57628 us
3819971875: global: Predicted memory time / byte = 7.27596e-05 us/byte
3819984375: global: Predicted memory time = 4.76837 us
3819996875: global: Predicted memory time / byte = 0.000461914 us/byte
3820009375: global: Predicted memory time = 22.704 us
3820021875: global: Predicted memory time / byte = 0.000265213 us/byte
3820034375: global: Predicted memory time = 17.381 us
3820046875: global: Predicted memory access size = 0
3820059375: global: Predicted memory access size = 49152
3820071875: global: Predicted memory access size = 0
3820084375: global: Predicted memory access size = 65536
3820250000: global: Timer #0 stopped at tick 3820250000. Duration: 1519375
3820266250: global: Number of accelerators running = 3
3820394375: global: Timer #0 started at tick 3820394375
3820887500: global: Timer #1 started at tick 3820887500
3820956875: global: Timer #1 stopped at tick 3820956875. Duration: 69375
3822575000: system.acctest.convolution0_dma: SRC:0x00000000820ce0c0, DST:0x0000000022030020, LEN:100
3822752000: system.acctest.convolution0_dma: Transfer completed in 0.177 us
3822900625: global: Timer #0 stopped at tick 3822900625. Duration: 2506250
3822916875: global: Number of accelerators running = 3
3823248750: global: Timer #0 started at tick 3823248750
3823421250: global: Timer #2 started at tick 3823421250
3823679875: system.acctest.isp0_dma: Transfer completed in 5.474 us
3823862500: global: Timer #2 stopped at tick 3823862500. Duration: 441250
3824166875: global: DAG ID = 2
3824180625: global: Node ID = 5
3824193750: global: Node deadline difference = -2231
3824206250: global: Predicted memory time / byte = 7.27596e-05 us/byte
3824218750: global: Predicted memory time = 9.53674 us
3824231250: global: Predicted memory time / byte = 7.27596e-05 us/byte
3824243750: global: Predicted memory time = 4.76837 us
3824256250: global: Predicted memory time / byte = 0.000273209 us/byte
3824268750: global: Predicted memory time = 17.905 us
3824281250: global: Predicted memory time / byte = 0 us/byte
3824293750: global: Predicted memory time = 0 us
3824306250: global: Predicted memory access size = 0
3824318750: global: Predicted memory access size = 65536
3824331250: global: Predicted memory access size = 0
3824343750: global: Predicted memory access size = 0
3837879500: system.acctest.elem_matrix0_dma: SRC:0x0000000082160880, DST:0x0000000024000020, LEN:65536
3838116875: global: Timer #0 stopped at tick 3838116875. Duration: 14868125
3838133125: global: Number of accelerators running = 3
3838356875: global: Timer #0 started at tick 3838356875
3840284375: global: Timer #0 stopped at tick 3840284375. Duration: 1927500
3840300625: global: Number of accelerators running = 3
3840425000: global: Timer #0 started at tick 3840425000
3840733750: global: Timer #1 started at tick 3840733750
3840748750: global: Timer #1 stopped at tick 3840748750. Duration: 15000
3841273125: global: DAG ID = 0
3841286875: global: Node ID = 0
3841305000: global: Node deadline difference = -13400
3841317500: global: Predicted memory time / byte = 7.27596e-05 us/byte
3841330000: global: Predicted memory time = 1.22964 us
3841342500: global: Predicted memory time / byte = 7.27596e-05 us/byte
3841355000: global: Predicted memory time = 3.57628 us
3841367500: global: Predicted memory time / byte = 0.000933905 us/byte
3841380000: global: Predicted memory time = 15.783 us
3841392500: global: Predicted memory time / byte = 0.000450012 us/byte
3841405000: global: Predicted memory time = 22.119 us
3841417500: global: Predicted memory access size = 0
3841430000: global: Predicted memory access size = 16900
3841442500: global: Predicted memory access size = 0
3841455000: global: Predicted memory access size = 49152
3849874500: system.acctest.elem_matrix0_dma: Transfer completed in 11.995 us
3851690875: system.acctest.grayscale0_dma: SRC:0x000000008201cf80, DST:0x0000000025000020, LEN:49152
3851898750: global: Timer #0 stopped at tick 3851898750. Duration: 11473750
3851915000: global: Number of accelerators running = 3
3852075000: global: Timer #0 started at tick 3852075000
3852530000: global: Timer #1 started at tick 3852530000
3852558125: global: Timer #1 stopped at tick 3852558125. Duration: 28125
3854251250: global: Timer #0 stopped at tick 3854251250. Duration: 2176250
3854267500: global: Number of accelerators running = 3
3860466875: system.acctest.grayscale0_dma: Transfer completed in 8.776 us
3860553125: global: Timer #0 started at tick 3860553125
3861004375: global: Timer #1 started at tick 3861004375
3861026250: global: Timer #1 stopped at tick 3861026250. Duration: 21875
3862191250: global: Timer #0 stopped at tick 3862191250. Duration: 1638125
3862292500: global: Number of accelerators running = 3
********************************************************************************
system.acctest.elem_matrix0.compute
   ========= Performance Analysis =============
   Setup Time:                      5.389431seconds
   Simulation Time:                 128.633733seconds
   System Clock:                    1.000000GHz
   Transistor Latency:              1ns
   Runtime:                         10932 cycles
   Runtime:                         10.932000 us
   Stalls:                          0 cycles
   Executed Nodes:                  10931 cycles

********************************************************************************
   ========= Performance Analysis =================
   Setup Time:                      5389430534.000000ns
   Simulation Time:                 128633733385.000000ns
   System Clock:                    1.000000GHz
   Transistor Latency:              0ns
   Runtime:                         10932 cycles
   Runtime:                         0.000001 seconds
   Stalls:                          0 cycles
       Load Only:                   0 cycles
       Store Only:                  0 cycles
       Compute Only:                0 cycles
       Compute & Store:             0 cycles
       Load & Store:                0 cycles
       Load & Compute:              0 cycles
       Load & Compute & Store:      0 cycles
   Executed Nodes:                  10931 cycles
       Load Only:                   0 cycles
       Store Only:                  5 cycles
       Compute Only:                1 cycles
       Compute & Store:             21 cycles
       Load & Store:                0 cycles
       Load & Compute:              7 cycles
       Load & Compute & Store:      10897 cycles

   ========= Runtime FU's ========= (Max | Avg) ===
   Counter FU's:                      32 | 0.046838
   Integer Add/Sub FU's:               0 | 0.000000
   Integer Mul/Div FU's:               0 | 0.000000
   Integer Shifter FU's:               0 | 0.000000
   Integer Bitwise FU's:               1 | 0.000091
   Floating Point Float Add/Sub:      34 | 0.044252
   Floating Point Double Add/Sub:      0 | 0.000000
   Floating Point Float Mul/Div:       0 | 0.000000
   Floating Point Double Mul/Div:      0 | 0.000000
   0 Cycle Compare FU's:             102 | 0.046974
   GEP Instruction FU's:              96 | 0.046835
   Type Conversion FU's:               7 | 0.006782

   ========= Static FU's ==========================
   Counter FU's:                    0
   Integer Add/Sub FU's:            0
   Integer Mul/Div FU's:            0
   Integer Shifter FU's:            0
   Integer Bitwise FU's:            0
   Floating Point Float Add/Sub:    0
   Floating Point Double Add/Sub:   0
   Floating Point Float Mul/Div:    0
   Floating Point Double Mul/Div:   0
   0 Cycle Compare FU's:            0
   GEP Instruction FU's:            0
   Type Conversion FU's:            0
   Other:                           0

   ========= Pipeline Register Usage =============
   Total Number of Registers:       5641
   Max Register Usage Per Cycle:    138
   Avg Register Usage Per Cycle:    12.130992
   Avg Register Size (Bytes):       5.980606

   ========= Memory Configuration =================
   Cache Bus Ports:                 0
   Shared Cache Size:               0kB
   Local Bus Ports:                 0
   Private SPM Size:                256kB
   Private Read Ports:              0
   Private Write Ports:             0
   Private Read Bus Width:          64
   Private Write Bus Width:         64
       Memory Reads:                0
       Memory Writes:               0
   ========= Power Analysis ======================
   FU Leakage Power:                0.519269 mW 
   FU Dynamic Power:                0.154621 mW 
   FU Total Power:                  0.673890 mW 

   Registers Leakage Power:          0.005281 mW 
   Registers Dynamic Power:          0.015326 mW 
       Register Reads (Bits):        132616
       Register Writes (Bits):       133658
   Registers Total Power:            0.020607 mW

   SPM Leakage Power:               0.104100 mW
   SPM Read Dynamic Power:          3.776796 mW
   SPM Write Dynamic Power:         2.457440 mW
   SPM Total Power:                 6.338336 mW

   Cache Leakage Power:             0.000000 mW
   Cache Read Dynamic Power:        0.000000 mW
   Cache Write Dynamic Power:       0.000000 mW
   Cache Total Power:               0.000000 mW

   Accelerator Power:               0.694497 mW
   Accelerator Power (SPM):         7.032833 mW
   Accelerator Power (Cache):       0.694497 mW

   ========= Area Analysis =======================
   FU Area:                         70212.562500 um^2 (0.070213 mm^2)
   Register Area:                   429.271088 um^2 (0.000429 mm^2)
   SPM Area:                        2177.365505 um^2 (0.002177 mm^2)
   Cache Area:                      0.000000 um^2 (0.000000 mm^2)

   Accelerator Area:                70641.835938 um^2 (0.070642 mm^2)
   Accelerator Area (SPM):          72819.201442 um^2 (0.072819 mm^2)
   Accelerator Area (Cache):        70641.835938 um^2 (0.070642 mm^2)

   ========= SPM Resizing  =======================
   SPM Optimized Leakage Power:     0.004248 mW
   SPM Opt Area:                    178.524902 um^2

3865053750: global: Timer #0 started at tick 3865053750
3865336250: global: Timer #2 started at tick 3865336250
3865838125: global: Timer #2 stopped at tick 3865838125. Duration: 501875
3866095000: global: DAG ID = 2
3866108750: global: Node ID = 6
3866121875: global: Node deadline difference = -2246
3866134375: global: Predicted memory time / byte = 7.27596e-05 us/byte
3866146875: global: Predicted memory time = 9.53674 us
3866159375: global: Predicted memory time / byte = 7.27596e-05 us/byte
3866171875: global: Predicted memory time = 4.76837 us
3866184375: global: Predicted memory time / byte = 0.000216675 us/byte
3866196875: global: Predicted memory time = 14.2 us
3866209375: global: Predicted memory time / byte = 0 us/byte
3866221875: global: Predicted memory time = 0 us
3866234375: global: Predicted memory access size = 0
3866246875: global: Predicted memory access size = 65536
3866259375: global: Predicted memory access size = 0
3866271875: global: Predicted memory access size = 0
3867686250: global: Timer #0 stopped at tick 3867686250. Duration: 2632500
3867702500: global: Number of accelerators running = 3
********************************************************************************
system.acctest.grayscale0.compute
   ========= Performance Analysis =============
   Setup Time:                      0.006290seconds
   Simulation Time:                 207.511236seconds
   System Clock:                    1.000000GHz
   Transistor Latency:              1ns
   Runtime:                         10263 cycles
   Runtime:                         10.263000 us
   Stalls:                          1 cycles
   Executed Nodes:                  10261 cycles

********************************************************************************
   ========= Performance Analysis =================
   Setup Time:                      6290000.000000ns
   Simulation Time:                 207511235780.000000ns
   System Clock:                    1.000000GHz
   Transistor Latency:              0ns
   Runtime:                         10263 cycles
   Runtime:                         0.000001 seconds
   Stalls:                          1 cycles
       Load Only:                   0 cycles
       Store Only:                  1 cycles
       Compute Only:                0 cycles
       Compute & Store:             0 cycles
       Load & Store:                0 cycles
       Load & Compute:              0 cycles
       Load & Compute & Store:      0 cycles
   Executed Nodes:                  10261 cycles
       Load Only:                   0 cycles
       Store Only:                  1 cycles
       Compute Only:                88 cycles
       Compute & Store:             344 cycles
       Load & Store:                0 cycles
       Load & Compute:              1981 cycles
       Load & Compute & Store:      7847 cycles

   ========= Runtime FU's ========= (Max | Avg) ===
   Counter FU's:                      24 | 0.199556
   Integer Add/Sub FU's:               0 | 0.000000
   Integer Mul/Div FU's:               8 | 0.199552
   Integer Shifter FU's:               0 | 0.000000
   Integer Bitwise FU's:               1 | 0.000097
   Floating Point Float Add/Sub:      49 | 0.114264
   Floating Point Double Add/Sub:      0 | 0.000000
   Floating Point Float Mul/Div:      42 | 0.114129
   Floating Point Double Mul/Div:      0 | 0.000000
   0 Cycle Compare FU's:               9 | 0.066626
   GEP Instruction FU's:              36 | 0.177452
   Type Conversion FU's:              76 | 0.401969

   ========= Static FU's ==========================
   Counter FU's:                    0
   Integer Add/Sub FU's:            0
   Integer Mul/Div FU's:            0
   Integer Shifter FU's:            0
   Integer Bitwise FU's:            0
   Floating Point Float Add/Sub:    0
   Floating Point Double Add/Sub:   0
   Floating Point Float Mul/Div:    0
   Floating Point Double Mul/Div:   0
   0 Cycle Compare FU's:            0
   GEP Instruction FU's:            0
   Type Conversion FU's:            0
   Other:                           0

   ========= Pipeline Register Usage =============
   Total Number of Registers:       235
   Max Register Usage Per Cycle:    90
   Avg Register Usage Per Cycle:    33.924291
   Avg Register Size (Bytes):       5.841147

   ========= Memory Configuration =================
   Cache Bus Ports:                 0
   Shared Cache Size:               0kB
   Local Bus Ports:                 0
   Private SPM Size:                176kB
   Private Read Ports:              0
   Private Write Ports:             0
   Private Read Bus Width:          64
   Private Write Bus Width:         64
       Memory Reads:                0
       Memory Writes:               0
   ========= Power Analysis ======================
   FU Leakage Power:                1.178269 mW 
   FU Dynamic Power:                0.617392 mW 
   FU Total Power:                  1.795662 mW 

   Registers Leakage Power:          0.014185 mW 
   Registers Dynamic Power:          0.101057 mW 
       Register Reads (Bits):        348165
       Register Writes (Bits):       348168
   Registers Total Power:            0.115242 mW

   SPM Leakage Power:               0.089881 mW
   SPM Read Dynamic Power:          10.232207 mW
   SPM Write Dynamic Power:         5.980668 mW
   SPM Total Power:                 16.302756 mW

   Cache Leakage Power:             0.000000 mW
   Cache Read Dynamic Power:        0.000000 mW
   Cache Write Dynamic Power:       0.000000 mW
   Cache Total Power:               0.000000 mW

   Accelerator Power:               1.910904 mW
   Accelerator Power (SPM):         18.213660 mW
   Accelerator Power (Cache):       1.910904 mW

   ========= Area Analysis =======================
   FU Area:                         143348.187500 um^2 (0.143348 mm^2)
   Register Area:                   1152.968140 um^2 (0.001153 mm^2)
   SPM Area:                        3573.642862 um^2 (0.003574 mm^2)
   Cache Area:                      0.000000 um^2 (0.000000 mm^2)

   Accelerator Area:                144501.156250 um^2 (0.144501 mm^2)
   Accelerator Area (SPM):          148074.799112 um^2 (0.148075 mm^2)
   Accelerator Area (Cache):        144501.156250 um^2 (0.144501 mm^2)

   ========= SPM Resizing  =======================
   SPM Optimized Leakage Power:     0.003633 mW
   SPM Opt Area:                    364.024374 um^2

3872343750: global: Timer #0 started at tick 3872343750
3872706250: global: Timer #2 started at tick 3872706250
3873281250: global: Timer #2 stopped at tick 3873281250. Duration: 575000
********************************************************************************
system.acctest.elem_matrix0.compute
   ========= Performance Analysis =============
   Setup Time:                      7.144105seconds
   Simulation Time:                 150.553454seconds
   System Clock:                    1.000000GHz
   Transistor Latency:              1ns
   Runtime:                         8316 cycles
   Runtime:                         8.316000 us
   Stalls:                          82 cycles
   Executed Nodes:                  8233 cycles

********************************************************************************
   ========= Performance Analysis =================
   Setup Time:                      7144105068.000000ns
   Simulation Time:                 150553453610.000000ns
   System Clock:                    1.000000GHz
   Transistor Latency:              0ns
   Runtime:                         8316 cycles
   Runtime:                         0.000001 seconds
   Stalls:                          82 cycles
       Load Only:                   0 cycles
       Store Only:                  77 cycles
       Compute Only:                0 cycles
       Compute & Store:             5 cycles
       Load & Store:                0 cycles
       Load & Compute:              0 cycles
       Load & Compute & Store:      0 cycles
   Executed Nodes:                  8233 cycles
       Load Only:                   0 cycles
       Store Only:                  11 cycles
       Compute Only:                1827 cycles
       Compute & Store:             3453 cycles
       Load & Store:                0 cycles
       Load & Compute:              774 cycles
       Load & Compute & Store:      2168 cycles

   ========= Runtime FU's ========= (Max | Avg) ===
   Counter FU's:                      32 | 0.061572
   Integer Add/Sub FU's:               0 | 0.000000
   Integer Mul/Div FU's:               0 | 0.000000
   Integer Shifter FU's:               0 | 0.000000
   Integer Bitwise FU's:               1 | 0.000120
   Floating Point Float Add/Sub:      80 | 0.302014
   Floating Point Double Add/Sub:      0 | 0.000000
   Floating Point Float Mul/Div:      35 | 0.056511
   Floating Point Double Mul/Div:      0 | 0.000000
   0 Cycle Compare FU's:              15 | 0.024828
   GEP Instruction FU's:              64 | 0.061568
   Type Conversion FU's:              66 | 0.120964

   ========= Static FU's ==========================
   Counter FU's:                    0
   Integer Add/Sub FU's:            0
   Integer Mul/Div FU's:            0
   Integer Shifter FU's:            0
   Integer Bitwise FU's:            0
   Floating Point Float Add/Sub:    0
   Floating Point Double Add/Sub:   0
   Floating Point Float Mul/Div:    0
   Floating Point Double Mul/Div:   0
   0 Cycle Compare FU's:            0
   GEP Instruction FU's:            0
   Type Conversion FU's:            0
   Other:                           0

   ========= Pipeline Register Usage =============
   Total Number of Registers:       5641
   Max Register Usage Per Cycle:    126
   Avg Register Usage Per Cycle:    27.706590
   Avg Register Size (Bytes):       5.993295

   ========= Memory Configuration =================
   Cache Bus Ports:                 0
   Shared Cache Size:               0kB
   Local Bus Ports:                 0
   Private SPM Size:                256kB
   Private Read Ports:              0
   Private Write Ports:             0
   Private Read Bus Width:          64
   Private Write Bus Width:         64
       Memory Reads:                0
       Memory Writes:               0
   ========= Power Analysis ======================
   FU Leakage Power:                1.265749 mW 
   FU Dynamic Power:                1.166708 mW 
   FU Total Power:                  2.432457 mW 

   Registers Leakage Power:          0.011908 mW 
   Registers Dynamic Power:          0.045645 mW 
       Register Reads (Bits):        230408
       Register Writes (Bits):       231961
   Registers Total Power:            0.057553 mW

   SPM Leakage Power:               0.104100 mW
   SPM Read Dynamic Power:          4.599549 mW
   SPM Write Dynamic Power:         2.880682 mW
   SPM Total Power:                 7.584331 mW

   Cache Leakage Power:             0.000000 mW
   Cache Read Dynamic Power:        0.000000 mW
   Cache Write Dynamic Power:       0.000000 mW
   Cache Total Power:               0.000000 mW

   Accelerator Power:               2.490010 mW
   Accelerator Power (SPM):         10.074342 mW
   Accelerator Power (Cache):       2.490010 mW

   ========= Area Analysis =======================
   FU Area:                         170559.593750 um^2 (0.170560 mm^2)
   Register Area:                   967.909180 um^2 (0.000968 mm^2)
   SPM Area:                        2177.365505 um^2 (0.002177 mm^2)
   Cache Area:                      0.000000 um^2 (0.000000 mm^2)

   Accelerator Area:                171527.500000 um^2 (0.171527 mm^2)
   Accelerator Area (SPM):          173704.865505 um^2 (0.173705 mm^2)
   Accelerator Area (Cache):        171527.500000 um^2 (0.171527 mm^2)

   ========= SPM Resizing  =======================
   SPM Optimized Leakage Power:     0.003887 mW
   SPM Opt Area:                    172.850411 um^2

3886455875: system.acctest.grayscale0_dma: SRC:0x000000002500c020, DST:0x0000000082029100, LEN:65536
3886833125: global: Timer #0 stopped at tick 3886833125. Duration: 14489375
3886849375: global: Number of accelerators running = 3
3886968750: global: Timer #0 started at tick 3886968750
3887271250: global: Timer #2 started at tick 3887271250
3887544375: global: Timer #2 stopped at tick 3887544375. Duration: 273125
3887797500: global: DAG ID = 2
3887811250: global: Node ID = 7
3887824375: global: Node deadline difference = -2264
3887836875: global: Predicted memory time / byte = 7.27596e-05 us/byte
3887849375: global: Predicted memory time = 4.76837 us
3887861875: global: Predicted memory time / byte = 7.27596e-05 us/byte
3887874375: global: Predicted memory time = 4.76837 us
3887886875: global: Predicted memory time / byte = 0 us/byte
3887899375: global: Predicted memory time = 0 us
3887911875: global: Predicted memory time / byte = 0 us/byte
3887924375: global: Predicted memory time = 0 us
3887936875: global: Predicted memory access size = 0
3887949375: global: Predicted memory access size = 0
3887961875: global: Predicted memory access size = 0
3887974375: global: Predicted memory access size = 0
3893067875: system.acctest.grayscale0_dma: Transfer completed in 6.612 us
3901822375: system.acctest.elem_matrix0_dma: SRC:0x0000000082290bc0, DST:0x0000000024010020, LEN:65536
3902044375: global: Timer #0 stopped at tick 3902044375. Duration: 15075625
3902060625: global: Number of accelerators running = 3
3902320000: global: Timer #0 started at tick 3902320000
3902640000: global: Timer #1 started at tick 3902640000
3902655000: global: Timer #1 stopped at tick 3902655000. Duration: 15000
3903008125: global: DAG ID = 0
3903021875: global: Node ID = 1
3903040000: global: Node deadline difference = -13376
3903052500: global: Predicted memory time / byte = 7.27596e-05 us/byte
3903065000: global: Predicted memory time = 3.57628 us
3903077500: global: Predicted memory time / byte = 7.27596e-05 us/byte
3903090000: global: Predicted memory time = 4.76837 us
3903102500: global: Predicted memory time / byte = 0.000180379 us/byte
3903115000: global: Predicted memory time = 8.866 us
3903127500: global: Predicted memory time / byte = 0.000240692 us/byte
3903140000: global: Predicted memory time = 15.774 us
3903152500: global: Predicted memory access size = 0
3903165000: global: Predicted memory access size = 49152
3903177500: global: Predicted memory access size = 0
3903190000: global: Predicted memory access size = 65536
3903308750: global: Timer #0 stopped at tick 3903308750. Duration: 988750
3903325000: global: Number of accelerators running = 2
3913814375: system.acctest.elem_matrix0_dma: Transfer completed in 11.992 us
3913900625: global: Timer #0 started at tick 3913900625
3914401250: global: Timer #1 started at tick 3914401250
3914467500: global: Timer #1 stopped at tick 3914467500. Duration: 66250
3916327500: global: Timer #0 stopped at tick 3916327500. Duration: 2426875
3916386875: global: Number of accelerators running = 2
********************************************************************************
system.acctest.elem_matrix0.compute
   ========= Performance Analysis =============
   Setup Time:                      7.165494seconds
   Simulation Time:                 123.411090seconds
   System Clock:                    1.000000GHz
   Transistor Latency:              1ns
   Runtime:                         10932 cycles
   Runtime:                         10.932000 us
   Stalls:                          1 cycles
   Executed Nodes:                  10930 cycles

********************************************************************************
   ========= Performance Analysis =================
   Setup Time:                      7165493730.000000ns
   Simulation Time:                 123411089965.000000ns
   System Clock:                    1.000000GHz
   Transistor Latency:              0ns
   Runtime:                         10932 cycles
   Runtime:                         0.000001 seconds
   Stalls:                          1 cycles
       Load Only:                   0 cycles
       Store Only:                  1 cycles
       Compute Only:                0 cycles
       Compute & Store:             0 cycles
       Load & Store:                0 cycles
       Load & Compute:              0 cycles
       Load & Compute & Store:      0 cycles
   Executed Nodes:                  10930 cycles
       Load Only:                   0 cycles
       Store Only:                  4 cycles
       Compute Only:                1 cycles
       Compute & Store:             21 cycles
       Load & Store:                0 cycles
       Load & Compute:              6 cycles
       Load & Compute & Store:      10898 cycles

   ========= Runtime FU's ========= (Max | Avg) ===
   Counter FU's:                      32 | 0.046838
   Integer Add/Sub FU's:               0 | 0.000000
   Integer Mul/Div FU's:               0 | 0.000000
   Integer Shifter FU's:               0 | 0.000000
   Integer Bitwise FU's:               1 | 0.000091
   Floating Point Float Add/Sub:       0 | 0.000000
   Floating Point Double Add/Sub:      0 | 0.000000
   Floating Point Float Mul/Div:      34 | 0.044252
   Floating Point Double Mul/Div:      0 | 0.000000
   0 Cycle Compare FU's:             102 | 0.046945
   GEP Instruction FU's:              96 | 0.046835
   Type Conversion FU's:               7 | 0.006782

   ========= Static FU's ==========================
   Counter FU's:                    0
   Integer Add/Sub FU's:            0
   Integer Mul/Div FU's:            0
   Integer Shifter FU's:            0
   Integer Bitwise FU's:            0
   Floating Point Float Add/Sub:    0
   Floating Point Double Add/Sub:   0
   Floating Point Float Mul/Div:    0
   Floating Point Double Mul/Div:   0
   0 Cycle Compare FU's:            0
   GEP Instruction FU's:            0
   Type Conversion FU's:            0
   Other:                           0

   ========= Pipeline Register Usage =============
   Total Number of Registers:       5641
   Max Register Usage Per Cycle:    137
   Avg Register Usage Per Cycle:    12.130992
   Avg Register Size (Bytes):       5.980606

   ========= Memory Configuration =================
   Cache Bus Ports:                 0
   Shared Cache Size:               0kB
   Local Bus Ports:                 0
   Private SPM Size:                256kB
   Private Read Ports:              0
   Private Write Ports:             0
   Private Read Bus Width:          64
   Private Write Bus Width:         64
       Memory Reads:                0
       Memory Writes:               0
   ========= Power Analysis ======================
   FU Leakage Power:                0.045377 mW 
   FU Dynamic Power:                0.142576 mW 
   FU Total Power:                  0.187953 mW 

   Registers Leakage Power:          0.005281 mW 
   Registers Dynamic Power:          0.015326 mW 
       Register Reads (Bits):        132616
       Register Writes (Bits):       133658
   Registers Total Power:            0.020607 mW

   SPM Leakage Power:               0.104100 mW
   SPM Read Dynamic Power:          4.784107 mW
   SPM Write Dynamic Power:         3.448926 mW
   SPM Total Power:                 8.337133 mW

   Cache Leakage Power:             0.000000 mW
   Cache Read Dynamic Power:        0.000000 mW
   Cache Write Dynamic Power:       0.000000 mW
   Cache Total Power:               0.000000 mW

   Accelerator Power:               0.208559 mW
   Accelerator Power (SPM):         8.545693 mW
   Accelerator Power (Cache):       0.208559 mW

   ========= Area Analysis =======================
   FU Area:                         5472.068359 um^2 (0.005472 mm^2)
   Register Area:                   429.271088 um^2 (0.000429 mm^2)
   SPM Area:                        2177.365505 um^2 (0.002177 mm^2)
   Cache Area:                      0.000000 um^2 (0.000000 mm^2)

   Accelerator Area:                5901.339355 um^2 (0.005901 mm^2)
   Accelerator Area (SPM):          8078.704860 um^2 (0.008079 mm^2)
   Accelerator Area (Cache):        5901.339355 um^2 (0.005901 mm^2)

   ========= SPM Resizing  =======================
   SPM Optimized Leakage Power:     0.004248 mW
   SPM Opt Area:                    178.524902 um^2

3927047500: global: Timer #0 started at tick 3927047500
3927391875: global: Timer #2 started at tick 3927391875
3927791250: global: Timer #2 stopped at tick 3927791250. Duration: 399375
3928023750: global: DAG ID = 2
3928037500: global: Node ID = 8
3928050625: global: Node deadline difference = -2281
3928063125: global: Predicted memory time / byte = 7.27596e-05 us/byte
3928075625: global: Predicted memory time = 9.53674 us
3928088125: global: Predicted memory time / byte = 7.27596e-05 us/byte
3928100625: global: Predicted memory time = 4.76837 us
3928113125: global: Predicted memory time / byte = 0.000184341 us/byte
3928125625: global: Predicted memory time = 12.081 us
3928138125: global: Predicted memory time / byte = 0 us/byte
3928150625: global: Predicted memory time = 0 us
3928163125: global: Predicted memory access size = 0
3928175625: global: Predicted memory access size = 65536
3928188125: global: Predicted memory access size = 0
3928200625: global: Predicted memory access size = 0
3941592375: system.acctest.elem_matrix0_dma: SRC:0x0000000082190a00, DST:0x0000000024000020, LEN:65536
3941795000: global: Timer #0 stopped at tick 3941795000. Duration: 14747500
3941811250: global: Number of accelerators running = 2
3953542375: system.acctest.elem_matrix0_dma: Transfer completed in 11.95 us
3953706250: global: Timer #0 started at tick 3953706250
3954119375: global: Timer #1 started at tick 3954119375
3954136250: global: Timer #1 stopped at tick 3954136250. Duration: 16875
3955911250: global: Timer #0 stopped at tick 3955911250. Duration: 2205000
3955927500: global: Number of accelerators running = 2
********************************************************************************
system.acctest.elem_matrix0.compute
   ========= Performance Analysis =============
   Setup Time:                      6.327103seconds
   Simulation Time:                 93.281944seconds
   System Clock:                    1.000000GHz
   Transistor Latency:              1ns
   Runtime:                         10932 cycles
   Runtime:                         10.932000 us
   Stalls:                          0 cycles
   Executed Nodes:                  10931 cycles

********************************************************************************
   ========= Performance Analysis =================
   Setup Time:                      6327103215.000000ns
   Simulation Time:                 93281944336.000000ns
   System Clock:                    1.000000GHz
   Transistor Latency:              0ns
   Runtime:                         10932 cycles
   Runtime:                         0.000001 seconds
   Stalls:                          0 cycles
       Load Only:                   0 cycles
       Store Only:                  0 cycles
       Compute Only:                0 cycles
       Compute & Store:             0 cycles
       Load & Store:                0 cycles
       Load & Compute:              0 cycles
       Load & Compute & Store:      0 cycles
   Executed Nodes:                  10931 cycles
       Load Only:                   0 cycles
       Store Only:                  5 cycles
       Compute Only:                1 cycles
       Compute & Store:             21 cycles
       Load & Store:                0 cycles
       Load & Compute:              7 cycles
       Load & Compute & Store:      10897 cycles

   ========= Runtime FU's ========= (Max | Avg) ===
   Counter FU's:                      32 | 0.046838
   Integer Add/Sub FU's:               0 | 0.000000
   Integer Mul/Div FU's:               0 | 0.000000
   Integer Shifter FU's:               0 | 0.000000
   Integer Bitwise FU's:               1 | 0.000091
   Floating Point Float Add/Sub:      34 | 0.044252
   Floating Point Double Add/Sub:      0 | 0.000000
   Floating Point Float Mul/Div:       0 | 0.000000
   Floating Point Double Mul/Div:      0 | 0.000000
   0 Cycle Compare FU's:             102 | 0.046974
   GEP Instruction FU's:              96 | 0.046835
   Type Conversion FU's:               7 | 0.006782

   ========= Static FU's ==========================
   Counter FU's:                    0
   Integer Add/Sub FU's:            0
   Integer Mul/Div FU's:            0
   Integer Shifter FU's:            0
   Integer Bitwise FU's:            0
   Floating Point Float Add/Sub:    0
   Floating Point Double Add/Sub:   0
   Floating Point Float Mul/Div:    0
   Floating Point Double Mul/Div:   0
   0 Cycle Compare FU's:            0
   GEP Instruction FU's:            0
   Type Conversion FU's:            0
   Other:                           0

   ========= Pipeline Register Usage =============
   Total Number of Registers:       5641
   Max Register Usage Per Cycle:    138
   Avg Register Usage Per Cycle:    12.130992
   Avg Register Size (Bytes):       5.980606

   ========= Memory Configuration =================
   Cache Bus Ports:                 0
   Shared Cache Size:               0kB
   Local Bus Ports:                 0
   Private SPM Size:                256kB
   Private Read Ports:              0
   Private Write Ports:             0
   Private Read Bus Width:          64
   Private Write Bus Width:         64
       Memory Reads:                0
       Memory Writes:               0
   ========= Power Analysis ======================
   FU Leakage Power:                0.519269 mW 
   FU Dynamic Power:                0.154621 mW 
   FU Total Power:                  0.673890 mW 

   Registers Leakage Power:          0.005281 mW 
   Registers Dynamic Power:          0.015326 mW 
       Register Reads (Bits):        132616
       Register Writes (Bits):       133658
   Registers Total Power:            0.020607 mW

   SPM Leakage Power:               0.104100 mW
   SPM Read Dynamic Power:          5.190014 mW
   SPM Write Dynamic Power:         3.846212 mW
   SPM Total Power:                 9.140327 mW

   Cache Leakage Power:             0.000000 mW
   Cache Read Dynamic Power:        0.000000 mW
   Cache Write Dynamic Power:       0.000000 mW
   Cache Total Power:               0.000000 mW

   Accelerator Power:               0.694497 mW
   Accelerator Power (SPM):         9.834824 mW
   Accelerator Power (Cache):       0.694497 mW

   ========= Area Analysis =======================
   FU Area:                         70212.562500 um^2 (0.070213 mm^2)
   Register Area:                   429.271088 um^2 (0.000429 mm^2)
   SPM Area:                        2177.365505 um^2 (0.002177 mm^2)
   Cache Area:                      0.000000 um^2 (0.000000 mm^2)

   Accelerator Area:                70641.835938 um^2 (0.070642 mm^2)
   Accelerator Area (SPM):          72819.201442 um^2 (0.072819 mm^2)
   Accelerator Area (Cache):        70641.835938 um^2 (0.070642 mm^2)

   ========= SPM Resizing  =======================
   SPM Optimized Leakage Power:     0.004248 mW
   SPM Opt Area:                    178.524902 um^2

3966682500: global: Timer #0 started at tick 3966682500
3966847500: global: Timer #2 started at tick 3966847500
3967169375: global: Timer #2 stopped at tick 3967169375. Duration: 321875
3980372375: system.acctest.elem_matrix0_dma: SRC:0x0000000024010020, DST:0x0000000082230a00, LEN:65536
3980753125: global: Timer #0 stopped at tick 3980753125. Duration: 14070625
3980769375: global: Number of accelerators running = 2
3986666375: system.acctest.elem_matrix0_dma: Transfer completed in 6.294 us
3986742500: global: Timer #0 started at tick 3986742500
3987070625: global: Timer #1 started at tick 3987070625
3987085625: global: Timer #1 stopped at tick 3987085625. Duration: 15000
3987304375: global: DAG ID = 2
3987318125: global: Node ID = 9
3987336250: global: Node deadline difference = -2278
3987348750: global: Predicted memory time / byte = 7.27596e-05 us/byte
3987361250: global: Predicted memory time = 9.53674 us
3987373750: global: Predicted memory time / byte = 7.27596e-05 us/byte
3987386250: global: Predicted memory time = 4.76837 us
3987398750: global: Predicted memory time / byte = 0.000183563 us/byte
3987411250: global: Predicted memory time = 12.03 us
3987423750: global: Predicted memory time / byte = 9.59015e-05 us/byte
3987436250: global: Predicted memory time = 6.285 us
3987448750: global: Predicted memory access size = 0
3987461250: global: Predicted memory access size = 65536
3987473750: global: Predicted memory access size = 0
3987486250: global: Predicted memory access size = 65536
4000958750: system.acctest.elem_matrix0_dma: SRC:0x0000000082290bc0, DST:0x0000000024000020, LEN:65536
4001195000: global: Timer #0 stopped at tick 4001195000. Duration: 14452500
4001211250: global: Number of accelerators running = 2
4012925750: system.acctest.elem_matrix0_dma: Transfer completed in 11.967 us
4013044375: global: Timer #0 started at tick 4013044375
4013491250: global: Timer #1 started at tick 4013491250
4013508125: global: Timer #1 stopped at tick 4013508125. Duration: 16875
4027130875: system.acctest.elem_matrix0_dma: SRC:0x0000000082130880, DST:0x0000000024010020, LEN:65536
4027376250: global: Timer #0 stopped at tick 4027376250. Duration: 14331875
4027392500: global: Number of accelerators running = 2
4039060875: system.acctest.elem_matrix0_dma: Transfer completed in 11.93 us
4039137500: global: Timer #0 started at tick 4039137500
4039583125: global: Timer #1 started at tick 4039583125
4039600000: global: Timer #1 stopped at tick 4039600000. Duration: 16875
4041318125: global: Timer #0 stopped at tick 4041318125. Duration: 2180625
4041334375: global: Number of accelerators running = 2
********************************************************************************
system.acctest.elem_matrix0.compute
   ========= Performance Analysis =============
   Setup Time:                      5.724579seconds
   Simulation Time:                 90.454992seconds
   System Clock:                    1.000000GHz
   Transistor Latency:              1ns
   Runtime:                         10932 cycles
   Runtime:                         10.932000 us
   Stalls:                          1 cycles
   Executed Nodes:                  10930 cycles

********************************************************************************
   ========= Performance Analysis =================
   Setup Time:                      5724579170.000000ns
   Simulation Time:                 90454991712.000000ns
   System Clock:                    1.000000GHz
   Transistor Latency:              0ns
   Runtime:                         10932 cycles
   Runtime:                         0.000001 seconds
   Stalls:                          1 cycles
       Load Only:                   0 cycles
       Store Only:                  1 cycles
       Compute Only:                0 cycles
       Compute & Store:             0 cycles
       Load & Store:                0 cycles
       Load & Compute:              0 cycles
       Load & Compute & Store:      0 cycles
   Executed Nodes:                  10930 cycles
       Load Only:                   0 cycles
       Store Only:                  4 cycles
       Compute Only:                1 cycles
       Compute & Store:             21 cycles
       Load & Store:                0 cycles
       Load & Compute:              6 cycles
       Load & Compute & Store:      10898 cycles

   ========= Runtime FU's ========= (Max | Avg) ===
   Counter FU's:                      32 | 0.046838
   Integer Add/Sub FU's:               0 | 0.000000
   Integer Mul/Div FU's:               0 | 0.000000
   Integer Shifter FU's:               0 | 0.000000
   Integer Bitwise FU's:               1 | 0.000091
   Floating Point Float Add/Sub:       0 | 0.000000
   Floating Point Double Add/Sub:      0 | 0.000000
   Floating Point Float Mul/Div:      34 | 0.044252
   Floating Point Double Mul/Div:      0 | 0.000000
   0 Cycle Compare FU's:             102 | 0.046945
   GEP Instruction FU's:              96 | 0.046835
   Type Conversion FU's:               7 | 0.006782

   ========= Static FU's ==========================
   Counter FU's:                    0
   Integer Add/Sub FU's:            0
   Integer Mul/Div FU's:            0
   Integer Shifter FU's:            0
   Integer Bitwise FU's:            0
   Floating Point Float Add/Sub:    0
   Floating Point Double Add/Sub:   0
   Floating Point Float Mul/Div:    0
   Floating Point Double Mul/Div:   0
   0 Cycle Compare FU's:            0
   GEP Instruction FU's:            0
   Type Conversion FU's:            0
   Other:                           0

   ========= Pipeline Register Usage =============
   Total Number of Registers:       5641
   Max Register Usage Per Cycle:    137
   Avg Register Usage Per Cycle:    12.130992
   Avg Register Size (Bytes):       5.980606

   ========= Memory Configuration =================
   Cache Bus Ports:                 0
   Shared Cache Size:               0kB
   Local Bus Ports:                 0
   Private SPM Size:                256kB
   Private Read Ports:              0
   Private Write Ports:             0
   Private Read Bus Width:          64
   Private Write Bus Width:         64
       Memory Reads:                0
       Memory Writes:               0
   ========= Power Analysis ======================
   FU Leakage Power:                0.045377 mW 
   FU Dynamic Power:                0.142576 mW 
   FU Total Power:                  0.187953 mW 

   Registers Leakage Power:          0.005281 mW 
   Registers Dynamic Power:          0.015326 mW 
       Register Reads (Bits):        132616
       Register Writes (Bits):       133658
   Registers Total Power:            0.020607 mW

   SPM Leakage Power:               0.104100 mW
   SPM Read Dynamic Power:          5.599688 mW
   SPM Write Dynamic Power:         4.937352 mW
   SPM Total Power:                 10.641140 mW

   Cache Leakage Power:             0.000000 mW
   Cache Read Dynamic Power:        0.000000 mW
   Cache Write Dynamic Power:       0.000000 mW
   Cache Total Power:               0.000000 mW

   Accelerator Power:               0.208559 mW
   Accelerator Power (SPM):         10.849700 mW
   Accelerator Power (Cache):       0.208559 mW

   ========= Area Analysis =======================
   FU Area:                         5472.068359 um^2 (0.005472 mm^2)
[...]
   Floating Point Float Add/Sub:       0 | 0.000000
   Floating Point Double Add/Sub:      0 | 0.000000
   Floating Point Float Mul/Div:       0 | 0.000000
   Floating Point Double Mul/Div:      0 | 0.000000
   0 Cycle Compare FU's:             102 | 0.047066
   GEP Instruction FU's:              96 | 0.046784
   Type Conversion FU's:               7 | 0.006775

   ========= Static FU's ==========================
   Counter FU's:                    0
   Integer Add/Sub FU's:            0
   Integer Mul/Div FU's:            0
   Integer Shifter FU's:            0
   Integer Bitwise FU's:            0
   Floating Point Float Add/Sub:    0
   Floating Point Double Add/Sub:   0
   Floating Point Float Mul/Div:    0
   Floating Point Double Mul/Div:   0
   0 Cycle Compare FU's:            0
   GEP Instruction FU's:            0
   Type Conversion FU's:            0
   Other:                           0

   ========= Pipeline Register Usage =============
   Total Number of Registers:       5641
   Max Register Usage Per Cycle:    137
   Avg Register Usage Per Cycle:    12.117690
   Avg Register Size (Bytes):       5.980606

   ========= Memory Configuration =================
   Cache Bus Ports:                 0
   Shared Cache Size:               0kB
   Local Bus Ports:                 0
   Private SPM Size:                256kB
   Private Read Ports:              0
   Private Write Ports:             0
   Private Read Bus Width:          64
   Private Write Bus Width:         64
       Memory Reads:                0
       Memory Writes:               0
   ========= Power Analysis ======================
   FU Leakage Power:                0.000611 mW 
   FU Dynamic Power:                0.036818 mW 
   FU Total Power:                  0.037429 mW 

   Registers Leakage Power:          0.005281 mW 
   Registers Dynamic Power:          0.015342 mW 
       Register Reads (Bits):        132616
       Register Writes (Bits):       133658
   Registers Total Power:            0.020624 mW

   SPM Leakage Power:               0.104100 mW
   SPM Read Dynamic Power:          23.975050 mW
   SPM Write Dynamic Power:         19.602807 mW
   SPM Total Power:                 43.681958 mW

   Cache Leakage Power:             0.000000 mW
   Cache Read Dynamic Power:        0.000000 mW
   Cache Write Dynamic Power:       0.000000 mW
   Cache Total Power:               0.000000 mW

   Accelerator Power:               0.058053 mW
   Accelerator Power (SPM):         43.740011 mW
   Accelerator Power (Cache):       0.058053 mW

   ========= Area Analysis =======================
   FU Area:                         50.369961 um^2 (0.000050 mm^2)
   Register Area:                   429.271088 um^2 (0.000429 mm^2)
   SPM Area:                        2177.365505 um^2 (0.002177 mm^2)
   Cache Area:                      0.000000 um^2 (0.000000 mm^2)

   Accelerator Area:                479.641052 um^2 (0.000480 mm^2)
   Accelerator Area (SPM):          2657.006557 um^2 (0.002657 mm^2)
   Accelerator Area (Cache):        479.641052 um^2 (0.000480 mm^2)

   ========= SPM Resizing  =======================
   SPM Optimized Leakage Power:     0.004248 mW
   SPM Opt Area:                    178.524902 um^2

21870429375: global: Timer #0 started at tick 21870429375
21870661250: global: Timer #2 started at tick 21870661250
21870961875: global: Timer #2 stopped at tick 21870961875. Duration: 300625
21871195625: global: DAG ID = 1
21871209375: global: Node ID = 19
21871222500: global: Node deadline difference = 3161
21871235000: global: Predicted memory time / byte = 7.27596e-05 us/byte
21871247500: global: Predicted memory time = 9.53674 us
21871260000: global: Predicted memory time / byte = 7.27596e-05 us/byte
21871272500: global: Predicted memory time = 4.76837 us
21871285000: global: Predicted memory time / byte = 0.000171127 us/byte
21871297500: global: Predicted memory time = 22.43 us
21871310000: global: Predicted memory time / byte = 0 us/byte
21871322500: global: Predicted memory time = 0 us
21871335000: global: Predicted memory access size = 0
21871347500: global: Predicted memory access size = 131072
21871360000: global: Predicted memory access size = 0
21871372500: global: Predicted memory access size = 0
21872190875: system.acctest.convolution0_dma: SRC:0x0000000024020020, DST:0x0000000022000020, LEN:65536
21872428125: global: Timer #0 stopped at tick 21872428125. Duration: 1998750
21872444375: global: Number of accelerators running = 1
21882451875: system.acctest.convolution0_dma: Transfer completed in 10.261 us
21882583125: global: Timer #0 started at tick 21882583125
21883068125: global: Timer #1 started at tick 21883068125
21883085000: global: Timer #1 stopped at tick 21883085000. Duration: 16875
21884290875: system.acctest.convolution0_dma: SRC:0x00000000820ce140, DST:0x0000000022030020, LEN:100
21884387875: system.acctest.convolution0_dma: Transfer completed in 0.097 us
21884547500: global: Timer #0 stopped at tick 21884547500. Duration: 1964375
21884563750: global: Number of accelerators running = 1
21884851250: global: Timer #0 started at tick 21884851250
21886596250: global: Timer #0 stopped at tick 21886596250. Duration: 1745000
21886612500: global: Number of accelerators running = 1
********************************************************************************
system.acctest.convolution0.compute
   ========= Performance Analysis =============
   Setup Time:                      0.885107seconds
   Simulation Time:                 284.898752seconds
   System Clock:                    1.000000GHz
   Transistor Latency:              1ns
   Runtime:                         1545605 cycles
   Runtime:                         1545.605000 us
   Stalls:                          0 cycles
   Executed Nodes:                  1545604 cycles

********************************************************************************
   ========= Performance Analysis =================
   Setup Time:                      885107076.000000ns
   Simulation Time:                 284898752158.000000ns
   System Clock:                    1.000000GHz
   Transistor Latency:              0ns
   Runtime:                         1545605 cycles
   Runtime:                         0.000155 seconds
   Stalls:                          0 cycles
       Load Only:                   0 cycles
       Store Only:                  0 cycles
       Compute Only:                0 cycles
       Compute & Store:             0 cycles
       Load & Store:                0 cycles
       Load & Compute:              0 cycles
       Load & Compute & Store:      0 cycles
   Executed Nodes:                  1545604 cycles
       Load Only:                   0 cycles
       Store Only:                  0 cycles
       Compute Only:                1127274 cycles
       Compute & Store:             16374 cycles
       Load & Store:                0 cycles
       Load & Compute:              401946 cycles
       Load & Compute & Store:      10 cycles

   ========= Runtime FU's ========= (Max | Avg) ===
   Counter FU's:                       3 | 0.112298
   Integer Add/Sub FU's:               4 | 0.211564
   Integer Mul/Div FU's:               1 | 0.052505
   Integer Shifter FU's:              10 | 0.005268
   Integer Bitwise FU's:               2 | 0.184266
   Floating Point Float Add/Sub:       5 | 0.207991
   Floating Point Double Add/Sub:      0 | 0.000000
   Floating Point Float Mul/Div:       2 | 0.130117
   Floating Point Double Mul/Div:      0 | 0.000000
   0 Cycle Compare FU's:              40 | 0.145956
   GEP Instruction FU's:               4 | 0.132683
   Type Conversion FU's:               7 | 0.186618

   ========= Static FU's ==========================
   Counter FU's:                    0
   Integer Add/Sub FU's:            0
   Integer Mul/Div FU's:            0
   Integer Shifter FU's:            0
   Integer Bitwise FU's:            0
   Floating Point Float Add/Sub:    0
   Floating Point Double Add/Sub:   0
   Floating Point Float Mul/Div:    0
   Floating Point Double Mul/Div:   0
   0 Cycle Compare FU's:            0
   GEP Instruction FU's:            0
   Type Conversion FU's:            0
   Other:                           0

   ========= Pipeline Register Usage =============
   Total Number of Registers:       1702
   Max Register Usage Per Cycle:    20
   Avg Register Usage Per Cycle:    6.348199
   Avg Register Size (Bytes):       5.569148

   ========= Memory Configuration =================
   Cache Bus Ports:                 0
   Shared Cache Size:               0kB
   Local Bus Ports:                 0
   Private SPM Size:                192kB
   Private Read Ports:              0
   Private Write Ports:             0
   Private Read Bus Width:          64
   Private Write Bus Width:         64
       Memory Reads:                0
       Memory Writes:               0
   ========= Power Analysis ======================
   FU Leakage Power:                0.196912 mW 
   FU Dynamic Power:                2743.028564 mW 
   FU Total Power:                  2743.225586 mW 

   Registers Leakage Power:          0.002459 mW 
   Registers Dynamic Power:          75.251152 mW 
       Register Reads (Bits):        9811808
       Register Writes (Bits):       10049727
   Registers Total Power:            75.253609 mW

   SPM Leakage Power:               0.078311 mW
   SPM Read Dynamic Power:          37.099763 mW
   SPM Write Dynamic Power:         5.754209 mW
   SPM Total Power:                 42.932282 mW

   Cache Leakage Power:             0.000000 mW
   Cache Read Dynamic Power:        0.000000 mW
   Cache Write Dynamic Power:       0.000000 mW
   Cache Total Power:               0.000000 mW

   Accelerator Power:               2818.479248 mW
   Accelerator Power (SPM):         2861.411530 mW
   Accelerator Power (Cache):       2818.479248 mW

   ========= Area Analysis =======================
   FU Area:                         22931.867188 um^2 (0.022932 mm^2)
   Register Area:                   199.868912 um^2 (0.000200 mm^2)
   SPM Area:                        1748.188735 um^2 (0.001748 mm^2)
   Cache Area:                      0.000000 um^2 (0.000000 mm^2)

   Accelerator Area:                23131.736328 um^2 (0.023132 mm^2)
   Accelerator Area (SPM):          24879.925063 um^2 (0.024880 mm^2)
   Accelerator Area (Cache):        23131.736328 um^2 (0.023132 mm^2)

   ========= SPM Resizing  =======================
   SPM Optimized Leakage Power:     0.002053 mW
   SPM Opt Area:                    145.024971 um^2

23432061250: global: Timer #0 started at tick 23432061250
23432291250: global: Timer #2 started at tick 23432291250
23432730000: global: Timer #2 stopped at tick 23432730000. Duration: 438750
23432966875: global: DAG ID = 1
23432980625: global: Node ID = 20
23432993750: global: Node deadline difference = 3145
23433006250: global: Predicted memory time / byte = 7.27596e-05 us/byte
23433018750: global: Predicted memory time = 4.77565 us
23433031250: global: Predicted memory time / byte = 7.27596e-05 us/byte
23433043750: global: Predicted memory time = 4.76837 us
23433056250: global: Predicted memory time / byte = 0.000158432 us/byte
23433068750: global: Predicted memory time = 10.383 us
23433081250: global: Predicted memory time / byte = 0 us/byte
23433093750: global: Predicted memory time = 0 us
23433106250: global: Predicted memory access size = 0
23433118750: global: Predicted memory access size = 65636
23433131250: global: Predicted memory access size = 0
23433143750: global: Predicted memory access size = 0
23446485875: system.acctest.elem_matrix0_dma: SRC:0x00000000820fe600, DST:0x0000000024000020, LEN:65536
23446683125: global: Timer #0 stopped at tick 23446683125. Duration: 14621875
23446699375: global: Number of accelerators running = 1
23458396875: system.acctest.elem_matrix0_dma: Transfer completed in 11.911 us
23458570000: global: Timer #0 started at tick 23458570000
23459063125: global: Timer #1 started at tick 23459063125
23459083125: global: Timer #1 stopped at tick 23459083125. Duration: 20000
23460338750: system.acctest.elem_matrix0_dma: SRC:0x0000000022010020, DST:0x0000000024010020, LEN:65536
23460570625: global: Timer #0 stopped at tick 23460570625. Duration: 2000625
23460586875: global: Number of accelerators running = 1
23470599750: system.acctest.elem_matrix0_dma: Transfer completed in 10.261 us
23470676250: global: Timer #0 started at tick 23470676250
23471116250: global: Timer #1 started at tick 23471116250
23471133125: global: Timer #1 stopped at tick 23471133125. Duration: 16875
23472841875: global: Timer #0 stopped at tick 23472841875. Duration: 2165625
23472858125: global: Number of accelerators running = 1
********************************************************************************
system.acctest.elem_matrix0.compute
   ========= Performance Analysis =============
   Setup Time:                      4.608097seconds
   Simulation Time:                 162.162261seconds
   System Clock:                    1.000000GHz
   Transistor Latency:              1ns
   Runtime:                         10932 cycles
   Runtime:                         10.932000 us
   Stalls:                          1 cycles
   Executed Nodes:                  10930 cycles

********************************************************************************
   ========= Performance Analysis =================
   Setup Time:                      4608097058.000000ns
   Simulation Time:                 162162260896.000000ns
   System Clock:                    1.000000GHz
   Transistor Latency:              0ns
   Runtime:                         10932 cycles
   Runtime:                         0.000001 seconds
   Stalls:                          1 cycles
       Load Only:                   0 cycles
       Store Only:                  1 cycles
       Compute Only:                0 cycles
       Compute & Store:             0 cycles
       Load & Store:                0 cycles
       Load & Compute:              0 cycles
       Load & Compute & Store:      0 cycles
   Executed Nodes:                  10930 cycles
       Load Only:                   0 cycles
       Store Only:                  4 cycles
       Compute Only:                1 cycles
       Compute & Store:             21 cycles
       Load & Store:                0 cycles
       Load & Compute:              6 cycles
       Load & Compute & Store:      10898 cycles

   ========= Runtime FU's ========= (Max | Avg) ===
   Counter FU's:                      32 | 0.046838
   Integer Add/Sub FU's:               0 | 0.000000
   Integer Mul/Div FU's:               0 | 0.000000
   Integer Shifter FU's:               0 | 0.000000
   Integer Bitwise FU's:               1 | 0.000091
   Floating Point Float Add/Sub:       0 | 0.000000
   Floating Point Double Add/Sub:      0 | 0.000000
   Floating Point Float Mul/Div:      34 | 0.044252
   Floating Point Double Mul/Div:      0 | 0.000000
   0 Cycle Compare FU's:             102 | 0.046945
   GEP Instruction FU's:              96 | 0.046835
   Type Conversion FU's:               7 | 0.006782

   ========= Static FU's ==========================
   Counter FU's:                    0
   Integer Add/Sub FU's:            0
   Integer Mul/Div FU's:            0
   Integer Shifter FU's:            0
   Integer Bitwise FU's:            0
   Floating Point Float Add/Sub:    0
   Floating Point Double Add/Sub:   0
   Floating Point Float Mul/Div:    0
   Floating Point Double Mul/Div:   0
   0 Cycle Compare FU's:            0
   GEP Instruction FU's:            0
   Type Conversion FU's:            0
   Other:                           0

   ========= Pipeline Register Usage =============
   Total Number of Registers:       5641
   Max Register Usage Per Cycle:    137
   Avg Register Usage Per Cycle:    12.130992
   Avg Register Size (Bytes):       5.980606

   ========= Memory Configuration =================
   Cache Bus Ports:                 0
   Shared Cache Size:               0kB
   Local Bus Ports:                 0
   Private SPM Size:                256kB
   Private Read Ports:              0
   Private Write Ports:             0
   Private Read Bus Width:          64
   Private Write Bus Width:         64
       Memory Reads:                0
       Memory Writes:               0
   ========= Power Analysis ======================
   FU Leakage Power:                0.045377 mW 
   FU Dynamic Power:                0.142576 mW 
   FU Total Power:                  0.187953 mW 

   Registers Leakage Power:          0.005281 mW 
   Registers Dynamic Power:          0.015326 mW 
       Register Reads (Bits):        132616
       Register Writes (Bits):       133658
   Registers Total Power:            0.020607 mW

   SPM Leakage Power:               0.104100 mW
   SPM Read Dynamic Power:          24.075045 mW
   SPM Write Dynamic Power:         19.658302 mW
   SPM Total Power:                 43.837447 mW

   Cache Leakage Power:             0.000000 mW
   Cache Read Dynamic Power:        0.000000 mW
   Cache Write Dynamic Power:       0.000000 mW
   Cache Total Power:               0.000000 mW

   Accelerator Power:               0.208559 mW
   Accelerator Power (SPM):         44.046006 mW
   Accelerator Power (Cache):       0.208559 mW

   ========= Area Analysis =======================
   FU Area:                         5472.068359 um^2 (0.005472 mm^2)
   Register Area:                   429.271088 um^2 (0.000429 mm^2)
   SPM Area:                        2177.365505 um^2 (0.002177 mm^2)
   Cache Area:                      0.000000 um^2 (0.000000 mm^2)

   Accelerator Area:                5901.339355 um^2 (0.005901 mm^2)
   Accelerator Area (SPM):          8078.704860 um^2 (0.008079 mm^2)
   Accelerator Area (Cache):        5901.339355 um^2 (0.005901 mm^2)

   ========= SPM Resizing  =======================
   SPM Optimized Leakage Power:     0.004248 mW
   SPM Opt Area:                    178.524902 um^2

23483627500: global: Timer #0 started at tick 23483627500
23496928750: system.acctest.elem_matrix0_dma: SRC:0x0000000024020020, DST:0x00000000820fe600, LEN:65536
23497286250: global: Timer #0 stopped at tick 23497286250. Duration: 13658750
23497302500: global: Number of accelerators running = 1
23503258750: system.acctest.elem_matrix0_dma: Transfer completed in 6.33 us
23503335000: global: Timer #0 started at tick 23503335000
23503716250: global: Timer #1 started at tick 23503716250
23503731250: global: Timer #1 stopped at tick 23503731250. Duration: 15000
23503988125: global: DAG ID = 1
23504001875: global: Node ID = 21
23504025625: global: DAG execution time = 19826
23504038750: global: DAG deadline difference = 3159
23504055625: global: Node deadline difference = 3159
23504068125: global: Predicted memory time / byte = 7.27596e-05 us/byte
23504080625: global: Predicted memory time = 9.53674 us
23504093125: global: Predicted memory time / byte = 7.27596e-05 us/byte
23504105625: global: Predicted memory time = 4.76837 us
23504118125: global: Predicted memory time / byte = 0.000171036 us/byte
23504130625: global: Predicted memory time = 22.418 us
23504143125: global: Predicted memory time / byte = 9.71985e-05 us/byte
23504155625: global: Predicted memory time = 6.37 us
23504168125: global: Predicted memory access size = 0
23504180625: global: Predicted memory access size = 131072
23504193125: global: Predicted memory access size = 0
23504205625: global: Predicted memory access size = 65536
23504309375: global: Timer #0 stopped at tick 23504309375. Duration: 974375
23504325625: global: Number of accelerators running = 0
23504416250: global: Number of forwards = 77
23504550000: global: Number of colocations = 57
23504569375: global: Number of DAG deadlines met = 1
23504588750: global: Number of node deadlines met = 115
23504622500: global: Total predicted compute time = 20394 us
Exiting @ tick 23504871875 because m5_exit instruction encountered
