gem5 Simulator System.  http://gem5.org
gem5 is copyrighted software; use the --copyright option for details.

gem5 compiled May 11 2023 13:12:28
gem5 started May 14 2023 13:03:05
gem5 executing on node4x10a.cs.rochester.edu, pid 70577
command line: /u/sgupta45/gem5-SALAM/build/ARM/gem5_bus.opt --debug-flags=HWACC,CommInterface,LLVMInterface,StreamDma,NoncoherentDma,TickTimer,SchedulerStats --outdir=BM_ARM_OUT/comb_4_xbar/canny_4_deblur_4_gru_0_harris_4_lstm_0_scale_0_ELF configs/SALAM/scheduler.py --mem-size=4GB --mem-type=LPDDR5_6400_1x16_BG_BL32 --kernel=/u/sgupta45/gem5-SALAM/benchmarks/scheduler/sw/bin_comb_4/canny_4_deblur_4_gru_0_harris_4_lstm_0_scale_0_ELF.elf --vans-config-path=/u/sgupta45/VANS/config --disk-image=/u/sgupta45/gem5-SALAM/baremetal/common/fake.iso --machine-type=VExpress_GEM5_V1 --dtb-file=none --bare-metal --cpu-type=ex5_LITTLE --cpu-clock=1.6GHz --accpath=/u/sgupta45/gem5-SALAM/benchmarks --caches --cacheline_size=64 --l1d_size=32kB --l1d_assoc=4 --l1i_size=32kB --l1i_assoc=2

Global frequency set at 1000000000000 ticks per second
Cycle Counts Loaded!
Cycle Counts Loaded!
Cycle Counts Loaded!
Cycle Counts Loaded!
Cycle Counts Loaded!
Cycle Counts Loaded!
Cycle Counts Loaded!
Cycle Counts Loaded!
Cycle Counts Loaded!
Cycle Counts Loaded!
Cycle Counts Loaded!
**** REAL SIMULATION ****
528805625: global: Timer #2 started at tick 528805625
530215625: global: Timer #2 stopped at tick 530215625. Duration: 1410000
532664375: global: Timer #2 started at tick 532664375
532991875: global: Timer #2 stopped at tick 532991875. Duration: 327500
535308125: global: Timer #2 started at tick 535308125
535601875: global: Timer #2 stopped at tick 535601875. Duration: 293750
538165000: global: Timer #2 started at tick 538165000
538373750: global: Timer #2 stopped at tick 538373750. Duration: 208750
540897500: global: Timer #2 started at tick 540897500
541140625: global: Timer #2 stopped at tick 541140625. Duration: 243125
544992500: global: Timer #2 started at tick 544992500
545336250: global: Timer #2 stopped at tick 545336250. Duration: 343750
549312500: global: Timer #2 started at tick 549312500
549936875: global: Timer #2 stopped at tick 549936875. Duration: 624375
553701250: global: Timer #2 started at tick 553701250
554034375: global: Timer #2 stopped at tick 554034375. Duration: 333125
557011250: global: Timer #2 started at tick 557011250
557453125: global: Timer #2 stopped at tick 557453125. Duration: 441875
560026250: global: Timer #2 started at tick 560026250
560295000: global: Timer #2 stopped at tick 560295000. Duration: 268750
562761250: global: Timer #2 started at tick 562761250
563266250: global: Timer #2 stopped at tick 563266250. Duration: 505000
565422500: global: Timer #2 started at tick 565422500
565944375: global: Timer #2 stopped at tick 565944375. Duration: 521875
572753750: system.acctest.isp0_dma: SRC:0x000000008232de80, DST:0x0000000027000020, LEN:16900
573276875: global: Number of accelerators running = 1
575939750: system.acctest.isp0_dma: Transfer completed in 3.186 us
576473750: global: Timer #0 started at tick 576473750
576988750: global: Timer #1 started at tick 576988750
577802500: global: Timer #1 stopped at tick 577802500. Duration: 813750
580102500: global: Timer #0 stopped at tick 580102500. Duration: 3628750
580121250: global: Number of accelerators running = 1
********************************************************************************
system.acctest.isp0.compute
   ========= Performance Analysis =============
   Setup Time:                      0.158764seconds
   Simulation Time:                 346.895seconds
   System Clock:                    1GHz
   Transistor Latency:              1ns
   Runtime:                         34882 cycles
   Runtime:                         34.882 us
   Stalls:                          1 cycles
   Executed Nodes:                  34880 cycles

********************************************************************************
   ========= Performance Analysis =================
   Setup Time:                      1.58764e+08ns
   Simulation Time:                 3.46895e+11ns
   System Clock:                    1GHz
   Transistor Latency:              0ns
   Runtime:                         34882 cycles
   Runtime:                         3.4882e-06 seconds
   Stalls:                          1 cycles
       Load Only:                   0 cycles
       Store Only:                  1 cycles
       Compute Only:                0 cycles
       Compute & Store:             0 cycles
       Load & Store:                0 cycles
       Load & Compute:              0 cycles
       Load & Compute & Store:      0 cycles
   Executed Nodes:                  34880 cycles
       Load Only:                   0 cycles
       Store Only:                  1 cycles
       Compute Only:                3453 cycles
       Compute & Store:             19014 cycles
       Load & Store:                0 cycles
       Load & Compute:              2467 cycles
       Load & Compute & Store:      9945 cycles

   ========= Runtime FU's ========= (Max | Avg) ===
   Counter FU's:                      10 | 0.118075
   Integer Add/Sub FU's:              76 | 0.082082
   Integer Mul/Div FU's:              11 | 0.043888
   Integer Shifter FU's:              42 | 0.055974
   Integer Bitwise FU's:               4 | 0.059443
   Floating Point Float Add/Sub:      53 | 0.116839
   Floating Point Double Add/Sub:      0 | 0.000000
   Floating Point Float Mul/Div:      76 | 0.625626
   Floating Point Double Mul/Div:      0 | 0.000000
   0 Cycle Compare FU's:              85 | 0.664984
   GEP Instruction FU's:              33 | 0.117424
   Type Conversion FU's:             110 | 0.379700

   ========= Static FU's ==========================
   Counter FU's:                    0
   Integer Add/Sub FU's:            0
   Integer Mul/Div FU's:            0
   Integer Shifter FU's:            0
   Integer Bitwise FU's:            0
   Floating Point Float Add/Sub:    0
   Floating Point Double Add/Sub:   0
   Floating Point Float Mul/Div:    0
   Floating Point Double Mul/Div:   0
   0 Cycle Compare FU's:            0
   GEP Instruction FU's:            0
   Type Conversion FU's:            0
   Other:                           0

   ========= Pipeline Register Usage =============
   Total Number of Registers:       1620
   Max Register Usage Per Cycle:    151
   Avg Register Usage Per Cycle:    58.744711
   Avg Register Size (Bytes):       5.073357

   ========= Memory Configuration =================
   Cache Bus Ports:                 0
   Shared Cache Size:               0kB
   Local Bus Ports:                 0
   Private SPM Size:                112kB
   Private Read Ports:              0
   Private Write Ports:             0
   Private Read Bus Width:          64
   Private Write Bus Width:         64
       Memory Reads:                0
       Memory Writes:               0
   ========= Power Analysis ======================
   FU Leakage Power:                1.637787 mW 
   FU Dynamic Power:                9.655087 mW 
   FU Total Power:                  11.292874 mW 

   Registers Leakage Power:          0.021654 mW 
   Registers Dynamic Power:          3.085961 mW 
       Register Reads (Bits):        2049133
       Register Writes (Bits):       2049168
   Registers Total Power:            3.107615 mW

   SPM Leakage Power:               0.061081 mW
   SPM Read Dynamic Power:          11.103730 mW
   SPM Write Dynamic Power:         7.385230 mW
   SPM Total Power:                 18.550041 mW

   Cache Leakage Power:             0.000000 mW
   Cache Read Dynamic Power:        0.000000 mW
   Cache Write Dynamic Power:       0.000000 mW
   Cache Total Power:               0.000000 mW

   Accelerator Power:               14.400490 mW
   Accelerator Power (SPM):         32.950531 mW
   Accelerator Power (Cache):       14.400490 mW

   ========= Area Analysis =======================
   FU Area:                         176023.796875 um^2 (0.176024 mm^2)
   Register Area:                   1760.064941 um^2 (0.001760 mm^2)
   SPM Area:                        2165.394891 um^2 (0.002165 mm^2)
   Cache Area:                      0.000000 um^2 (0.000000 mm^2)

   Accelerator Area:                177783.859375 um^2 (0.177784 mm^2)
   Accelerator Area (SPM):          179949.254266 um^2 (0.179949 mm^2)
   Accelerator Area (Cache):        177783.859375 um^2 (0.177784 mm^2)

   ========= SPM Resizing  =======================
   SPM Optimized Leakage Power:     0.005964 mW
   SPM Opt Area:                    422.108128 um^2

614371250: global: Timer #0 started at tick 614371250
614774375: global: Timer #3 started at tick 614774375
615161250: global: Timer #3 stopped at tick 615161250. Duration: 386875
615430000: global: Timer #2 started at tick 615430000
615673750: global: Timer #2 stopped at tick 615673750. Duration: 243750
616290000: global: DAG ID = 4
616354375: global: Node ID = 0
616373125: global: Node deadline difference = -246
616391250: global: Predicted memory time / byte = 0 us/byte
616409375: global: Predicted memory time = 0 us
616427500: global: Predicted memory time / byte = 0 us/byte
616490000: global: Predicted memory time = 0 us
616508125: global: Predicted memory time / byte = 0.000227929 us/byte
616526250: global: Predicted memory time = 3 us
616544375: global: Predicted memory time / byte = 0 us/byte
616562500: global: Predicted memory time = 0 us
617880875: system.acctest.grayscale0_dma: SRC:0x0000000027004224, DST:0x0000000025000020, LEN:49152
622740000: system.acctest.isp0_dma: SRC:0x0000000082390040, DST:0x0000000027000020, LEN:16900
622968750: global: Timer #0 stopped at tick 622968750. Duration: 8597500
622983125: global: Number of accelerators running = 2
626040000: system.acctest.isp0_dma: Transfer completed in 3.3 us
626128125: global: Timer #0 started at tick 626128125
626178125: global: Timer #1 started at tick 626178125
626388750: global: Timer #1 stopped at tick 626388750. Duration: 210625
627445875: system.acctest.grayscale0_dma: Transfer completed in 9.565 us
627508750: global: Timer #0 stopped at tick 627508750. Duration: 1380625
627523125: global: Number of accelerators running = 2
627648125: global: Timer #0 started at tick 627648125
627698125: global: Timer #1 started at tick 627698125
627895000: global: Timer #1 stopped at tick 627895000. Duration: 196875
629255000: global: Timer #0 stopped at tick 629255000. Duration: 1606875
629269375: global: Number of accelerators running = 2
********************************************************************************
system.acctest.grayscale0.compute
   ========= Performance Analysis =============
   Setup Time:                      0.006013seconds
   Simulation Time:                 251.853307seconds
   System Clock:                    1.000000GHz
   Transistor Latency:              1ns
   Runtime:                         10263 cycles
   Runtime:                         10.263000 us
   Stalls:                          1 cycles
   Executed Nodes:                  10261 cycles

********************************************************************************
   ========= Performance Analysis =================
   Setup Time:                      6013175.000000ns
   Simulation Time:                 251853306744.000000ns
   System Clock:                    1.000000GHz
   Transistor Latency:              0ns
   Runtime:                         10263 cycles
   Runtime:                         0.000001 seconds
   Stalls:                          1 cycles
       Load Only:                   0 cycles
       Store Only:                  1 cycles
       Compute Only:                0 cycles
       Compute & Store:             0 cycles
       Load & Store:                0 cycles
       Load & Compute:              0 cycles
       Load & Compute & Store:      0 cycles
   Executed Nodes:                  10261 cycles
       Load Only:                   0 cycles
       Store Only:                  1 cycles
       Compute Only:                88 cycles
       Compute & Store:             344 cycles
       Load & Store:                0 cycles
       Load & Compute:              1981 cycles
       Load & Compute & Store:      7847 cycles

   ========= Runtime FU's ========= (Max | Avg) ===
   Counter FU's:                      24 | 0.199556
   Integer Add/Sub FU's:               0 | 0.000000
   Integer Mul/Div FU's:               8 | 0.199552
   Integer Shifter FU's:               0 | 0.000000
   Integer Bitwise FU's:               1 | 0.000097
   Floating Point Float Add/Sub:      49 | 0.114264
   Floating Point Double Add/Sub:      0 | 0.000000
   Floating Point Float Mul/Div:      42 | 0.114129
   Floating Point Double Mul/Div:      0 | 0.000000
   0 Cycle Compare FU's:               9 | 0.066626
   GEP Instruction FU's:              36 | 0.177452
   Type Conversion FU's:              76 | 0.401969

   ========= Static FU's ==========================
   Counter FU's:                    0
   Integer Add/Sub FU's:            0
   Integer Mul/Div FU's:            0
   Integer Shifter FU's:            0
   Integer Bitwise FU's:            0
   Floating Point Float Add/Sub:    0
   Floating Point Double Add/Sub:   0
   Floating Point Float Mul/Div:    0
   Floating Point Double Mul/Div:   0
   0 Cycle Compare FU's:            0
   GEP Instruction FU's:            0
   Type Conversion FU's:            0
   Other:                           0

   ========= Pipeline Register Usage =============
   Total Number of Registers:       235
   Max Register Usage Per Cycle:    90
   Avg Register Usage Per Cycle:    33.924291
   Avg Register Size (Bytes):       5.841147

   ========= Memory Configuration =================
   Cache Bus Ports:                 0
   Shared Cache Size:               0kB
   Local Bus Ports:                 0
   Private SPM Size:                176kB
   Private Read Ports:              0
   Private Write Ports:             0
   Private Read Bus Width:          64
   Private Write Bus Width:         64
       Memory Reads:                0
       Memory Writes:               0
   ========= Power Analysis ======================
   FU Leakage Power:                1.178269 mW 
   FU Dynamic Power:                0.617392 mW 
   FU Total Power:                  1.795662 mW 

   Registers Leakage Power:          0.014185 mW 
   Registers Dynamic Power:          0.101057 mW 
       Register Reads (Bits):        348165
       Register Writes (Bits):       348168
   Registers Total Power:            0.115242 mW

   SPM Leakage Power:               0.089881 mW
   SPM Read Dynamic Power:          6.997296 mW
   SPM Write Dynamic Power:         2.062375 mW
   SPM Total Power:                 9.149552 mW

   Cache Leakage Power:             0.000000 mW
   Cache Read Dynamic Power:        0.000000 mW
   Cache Write Dynamic Power:       0.000000 mW
   Cache Total Power:               0.000000 mW

   Accelerator Power:               1.910904 mW
   Accelerator Power (SPM):         11.060456 mW
   Accelerator Power (Cache):       1.910904 mW

   ========= Area Analysis =======================
   FU Area:                         143348.187500 um^2 (0.143348 mm^2)
   Register Area:                   1152.968140 um^2 (0.001153 mm^2)
   SPM Area:                        3573.642862 um^2 (0.003574 mm^2)
   Cache Area:                      0.000000 um^2 (0.000000 mm^2)

   Accelerator Area:                144501.156250 um^2 (0.144501 mm^2)
   Accelerator Area (SPM):          148074.799112 um^2 (0.148075 mm^2)
   Accelerator Area (Cache):        144501.156250 um^2 (0.144501 mm^2)

   ========= SPM Resizing  =======================
   SPM Optimized Leakage Power:     0.003633 mW
   SPM Opt Area:                    364.024374 um^2

639188750: global: Timer #0 started at tick 639188750
639431875: global: Timer #3 started at tick 639431875
639620625: global: Timer #3 stopped at tick 639620625. Duration: 188750
640025000: global: Timer #2 started at tick 640025000
640313750: global: Timer #2 stopped at tick 640313750. Duration: 288750
653760875: system.acctest.grayscale0_dma: SRC:0x000000002500c020, DST:0x000000008233e240, LEN:65536
655737000: system.acctest.convolution0_dma: SRC:0x000000002500c020, DST:0x0000000022000020, LEN:65536
656200625: global: Timer #0 stopped at tick 656200625. Duration: 17011875
656215000: global: Number of accelerators running = 3
********************************************************************************
system.acctest.isp0.compute
   ========= Performance Analysis =============
   Setup Time:                      0.309183seconds
   Simulation Time:                 560.311720seconds
   System Clock:                    1.000000GHz
   Transistor Latency:              1ns
   Runtime:                         34883 cycles
   Runtime:                         34.883000 us
   Stalls:                          1 cycles
   Executed Nodes:                  34881 cycles

********************************************************************************
   ========= Performance Analysis =================
   Setup Time:                      309182841.000000ns
   Simulation Time:                 560311719568.000000ns
   System Clock:                    1.000000GHz
   Transistor Latency:              0ns
   Runtime:                         34883 cycles
   Runtime:                         0.000003 seconds
   Stalls:                          1 cycles
       Load Only:                   0 cycles
       Store Only:                  1 cycles
       Compute Only:                0 cycles
       Compute & Store:             0 cycles
       Load & Store:                0 cycles
       Load & Compute:              0 cycles
       Load & Compute & Store:      0 cycles
   Executed Nodes:                  34881 cycles
       Load Only:                   0 cycles
       Store Only:                  1 cycles
       Compute Only:                3464 cycles
       Compute & Store:             19000 cycles
       Load & Store:                0 cycles
       Load & Compute:              2488 cycles
       Load & Compute & Store:      9928 cycles

   ========= Runtime FU's ========= (Max | Avg) ===
   Counter FU's:                      10 | 0.118072
   Integer Add/Sub FU's:              68 | 0.091698
   Integer Mul/Div FU's:              11 | 0.043887
   Integer Shifter FU's:              45 | 0.052264
   Integer Bitwise FU's:               4 | 0.059442
   Floating Point Float Add/Sub:      50 | 0.123644
   Floating Point Double Add/Sub:      0 | 0.000000
   Floating Point Float Mul/Div:      76 | 0.625254
   Floating Point Double Mul/Div:      0 | 0.000000
   0 Cycle Compare FU's:              85 | 0.665361
   GEP Instruction FU's:              33 | 0.117421
   Type Conversion FU's:             111 | 0.376424

   ========= Static FU's ==========================
   Counter FU's:                    0
   Integer Add/Sub FU's:            0
   Integer Mul/Div FU's:            0
   Integer Shifter FU's:            0
   Integer Bitwise FU's:            0
   Floating Point Float Add/Sub:    0
   Floating Point Double Add/Sub:   0
   Floating Point Float Mul/Div:    0
   Floating Point Double Mul/Div:   0
   0 Cycle Compare FU's:            0
   GEP Instruction FU's:            0
   Type Conversion FU's:            0
   Other:                           0

   ========= Pipeline Register Usage =============
   Total Number of Registers:       1620
   Max Register Usage Per Cycle:    150
   Avg Register Usage Per Cycle:    58.743027
   Avg Register Size (Bytes):       5.073357

   ========= Memory Configuration =================
   Cache Bus Ports:                 0
   Shared Cache Size:               0kB
   Local Bus Ports:                 0
   Private SPM Size:                112kB
   Private Read Ports:              0
   Private Write Ports:             0
   Private Read Bus Width:          64
   Private Write Bus Width:         64
       Memory Reads:                0
       Memory Writes:               0
   ========= Power Analysis ======================
   FU Leakage Power:                1.578062 mW 
   FU Dynamic Power:                9.649071 mW 
   FU Total Power:                  11.227133 mW 

   Registers Leakage Power:          0.021654 mW 
   Registers Dynamic Power:          3.086050 mW 
       Register Reads (Bits):        2049133
       Register Writes (Bits):       2049168
   Registers Total Power:            3.107704 mW

   SPM Leakage Power:               0.061081 mW
   SPM Read Dynamic Power:          15.102444 mW
   SPM Write Dynamic Power:         10.618341 mW
   SPM Total Power:                 25.781867 mW

   Cache Leakage Power:             0.000000 mW
   Cache Read Dynamic Power:        0.000000 mW
   Cache Write Dynamic Power:       0.000000 mW
   Cache Total Power:               0.000000 mW

   Accelerator Power:               14.334837 mW
   Accelerator Power (SPM):         40.116704 mW
   Accelerator Power (Cache):       14.334837 mW

   ========= Area Analysis =======================
   FU Area:                         170581.953125 um^2 (0.170582 mm^2)
   Register Area:                   1760.064941 um^2 (0.001760 mm^2)
   SPM Area:                        2165.394891 um^2 (0.002165 mm^2)
   Cache Area:                      0.000000 um^2 (0.000000 mm^2)

   Accelerator Area:                172342.015625 um^2 (0.172342 mm^2)
   Accelerator Area (SPM):          174507.410516 um^2 (0.174507 mm^2)
   Accelerator Area (Cache):        172342.015625 um^2 (0.172342 mm^2)

   ========= SPM Resizing  =======================
   SPM Optimized Leakage Power:     0.005889 mW
   SPM Opt Area:                    420.258807 um^2

662209375: global: Timer #0 started at tick 662209375
662541875: global: Timer #3 started at tick 662541875
662775625: global: Timer #3 stopped at tick 662775625. Duration: 233750
662832500: global: Timer #2 started at tick 662832500
663045000: global: Timer #2 stopped at tick 663045000. Duration: 212500
664454875: system.acctest.grayscale0_dma: Transfer completed in 10.694 us
669025000: system.acctest.convolution0_dma: Transfer completed in 13.288 us
673185875: system.acctest.isp0_dma: SRC:0x0000000027010224, DST:0x0000000082394280, LEN:49152
673612500: global: Timer #0 stopped at tick 673612500. Duration: 11403125
673626875: global: Number of accelerators running = 3
673743125: global: Timer #0 started at tick 673743125
673933125: global: Timer #1 started at tick 673933125
674336250: global: Timer #1 stopped at tick 674336250. Duration: 403125
674747500: global: DAG ID = 4
674766875: global: Node ID = 1
674835000: global: Node deadline difference = -16560
674853125: global: Predicted memory time / byte = 0.000227929 us/byte
674871250: global: Predicted memory time = 26.1407 us
674889375: global: Predicted memory time / byte = 0.000227929 us/byte
674909375: global: Predicted memory time = 26.1407 us
674927500: global: Predicted memory time / byte = 0.000196004 us/byte
674945625: global: Predicted memory time = 9 us
674963750: global: Predicted memory time / byte = 0.000304932 us/byte
674983750: global: Predicted memory time = 19 us
678647875: system.acctest.isp0_dma: Transfer completed in 5.462 us
685628750: system.acctest.grayscale0_dma: SRC:0x0000000082394280, DST:0x0000000025000020, LEN:49152
685871875: global: Timer #0 stopped at tick 685871875. Duration: 12128750
685886250: global: Number of accelerators running = 3
686010000: global: Timer #0 started at tick 686010000
686058750: global: Timer #1 started at tick 686058750
686223750: global: Timer #1 stopped at tick 686223750. Duration: 165000
687853750: system.acctest.convolution0_dma: SRC:0x00000000822edb80, DST:0x0000000022030020, LEN:100
687955750: system.acctest.convolution0_dma: Transfer completed in 0.102 us
688128750: global: Timer #0 stopped at tick 688128750. Duration: 2118750
688143125: global: Number of accelerators running = 3
688267500: global: Timer #0 started at tick 688267500
688312500: global: Timer #1 started at tick 688312500
688523125: global: Timer #1 stopped at tick 688523125. Duration: 210625
688882500: global: DAG ID = 5
688896250: global: Node ID = 0
688915625: global: Node deadline difference = -16546
688928125: global: Predicted memory time / byte = 0 us/byte
688940625: global: Predicted memory time = 0 us
688953125: global: Predicted memory time / byte = 0.000227929 us/byte
688965625: global: Predicted memory time = 15.0552 us
688978125: global: Predicted memory time / byte = 0.000195562 us/byte
688990625: global: Predicted memory time = 3 us
689003125: global: Predicted memory time / byte = 0.000304769 us/byte
689015625: global: Predicted memory time = 14 us
693210000: system.acctest.isp0_dma: SRC:0x00000000823f2200, DST:0x0000000027000020, LEN:16900
693461875: global: Timer #0 stopped at tick 693461875. Duration: 5194375
693476250: global: Number of accelerators running = 3
693598125: global: Timer #0 started at tick 693598125
694999375: global: Timer #0 stopped at tick 694999375. Duration: 1401250
695013750: global: Number of accelerators running = 3
695516750: system.acctest.grayscale0_dma: Transfer completed in 9.888 us
695600625: global: Timer #0 started at tick 695600625
695642500: global: Timer #1 started at tick 695642500
695845000: global: Timer #1 stopped at tick 695845000. Duration: 202500
696792500: global: Timer #0 stopped at tick 696792500. Duration: 1191875
696804375: global: Number of accelerators running = 3
697173000: system.acctest.isp0_dma: Transfer completed in 3.963 us
697257500: global: Timer #0 started at tick 697257500
697310625: global: Timer #1 started at tick 697310625
697507500: global: Timer #1 stopped at tick 697507500. Duration: 196875
698559375: global: Timer #0 stopped at tick 698559375. Duration: 1301875
698573125: global: Number of accelerators running = 3
********************************************************************************
system.acctest.grayscale0.compute
   ========= Performance Analysis =============
   Setup Time:                      0.004971seconds
   Simulation Time:                 230.842091seconds
   System Clock:                    1.000000GHz
   Transistor Latency:              1ns
   Runtime:                         10263 cycles
   Runtime:                         10.263000 us
   Stalls:                          1 cycles
   Executed Nodes:                  10261 cycles

********************************************************************************
   ========= Performance Analysis =================
   Setup Time:                      4971475.000000ns
   Simulation Time:                 230842090842.000000ns
   System Clock:                    1.000000GHz
   Transistor Latency:              0ns
   Runtime:                         10263 cycles
   Runtime:                         0.000001 seconds
   Stalls:                          1 cycles
       Load Only:                   0 cycles
       Store Only:                  1 cycles
       Compute Only:                0 cycles
       Compute & Store:             0 cycles
       Load & Store:                0 cycles
       Load & Compute:              0 cycles
       Load & Compute & Store:      0 cycles
   Executed Nodes:                  10261 cycles
       Load Only:                   0 cycles
       Store Only:                  1 cycles
       Compute Only:                88 cycles
       Compute & Store:             344 cycles
       Load & Store:                0 cycles
       Load & Compute:              1981 cycles
       Load & Compute & Store:      7847 cycles

   ========= Runtime FU's ========= (Max | Avg) ===
   Counter FU's:                      24 | 0.199556
   Integer Add/Sub FU's:               0 | 0.000000
   Integer Mul/Div FU's:               8 | 0.199552
   Integer Shifter FU's:               0 | 0.000000
   Integer Bitwise FU's:               1 | 0.000097
   Floating Point Float Add/Sub:      49 | 0.114264
   Floating Point Double Add/Sub:      0 | 0.000000
   Floating Point Float Mul/Div:      42 | 0.114129
   Floating Point Double Mul/Div:      0 | 0.000000
   0 Cycle Compare FU's:               9 | 0.066626
   GEP Instruction FU's:              36 | 0.177452
   Type Conversion FU's:              76 | 0.401969

   ========= Static FU's ==========================
   Counter FU's:                    0
   Integer Add/Sub FU's:            0
   Integer Mul/Div FU's:            0
   Integer Shifter FU's:            0
   Integer Bitwise FU's:            0
   Floating Point Float Add/Sub:    0
   Floating Point Double Add/Sub:   0
   Floating Point Float Mul/Div:    0
   Floating Point Double Mul/Div:   0
   0 Cycle Compare FU's:            0
   GEP Instruction FU's:            0
   Type Conversion FU's:            0
   Other:                           0

   ========= Pipeline Register Usage =============
   Total Number of Registers:       235
   Max Register Usage Per Cycle:    90
   Avg Register Usage Per Cycle:    33.924291
   Avg Register Size (Bytes):       5.841147

   ========= Memory Configuration =================
   Cache Bus Ports:                 0
   Shared Cache Size:               0kB
   Local Bus Ports:                 0
   Private SPM Size:                176kB
   Private Read Ports:              0
   Private Write Ports:             0
   Private Read Bus Width:          64
   Private Write Bus Width:         64
       Memory Reads:                0
       Memory Writes:               0
   ========= Power Analysis ======================
   FU Leakage Power:                1.178269 mW 
   FU Dynamic Power:                0.617392 mW 
   FU Total Power:                  1.795662 mW 

   Registers Leakage Power:          0.014185 mW 
   Registers Dynamic Power:          0.101057 mW 
       Register Reads (Bits):        348165
       Register Writes (Bits):       348168
   Registers Total Power:            0.115242 mW

   SPM Leakage Power:               0.089881 mW
   SPM Read Dynamic Power:          10.232207 mW
   SPM Write Dynamic Power:         5.980668 mW
   SPM Total Power:                 16.302756 mW

   Cache Leakage Power:             0.000000 mW
   Cache Read Dynamic Power:        0.000000 mW
   Cache Write Dynamic Power:       0.000000 mW
   Cache Total Power:               0.000000 mW

   Accelerator Power:               1.910904 mW
   Accelerator Power (SPM):         18.213660 mW
   Accelerator Power (Cache):       1.910904 mW

   ========= Area Analysis =======================
   FU Area:                         143348.187500 um^2 (0.143348 mm^2)
   Register Area:                   1152.968140 um^2 (0.001153 mm^2)
   SPM Area:                        3573.642862 um^2 (0.003574 mm^2)
   Cache Area:                      0.000000 um^2 (0.000000 mm^2)

   Accelerator Area:                144501.156250 um^2 (0.144501 mm^2)
   Accelerator Area (SPM):          148074.799112 um^2 (0.148075 mm^2)
   Accelerator Area (Cache):        144501.156250 um^2 (0.144501 mm^2)

   ========= SPM Resizing  =======================
   SPM Optimized Leakage Power:     0.003633 mW
   SPM Opt Area:                    364.024374 um^2

706903125: global: Timer #0 started at tick 706903125
707168125: global: Timer #3 started at tick 707168125
707333125: global: Timer #3 stopped at tick 707333125. Duration: 165000
707609375: global: Timer #2 started at tick 707609375
707748125: global: Timer #2 stopped at tick 707748125. Duration: 138750
721061625: system.acctest.grayscale0_dma: SRC:0x000000002500c020, DST:0x00000000823a0400, LEN:65536
722306000: system.acctest.convolution1_dma: SRC:0x000000002500c020, DST:0x0000000022100020, LEN:65536
722590625: global: Timer #0 stopped at tick 722590625. Duration: 15687500
722604375: global: Number of accelerators running = 4
732546625: system.acctest.grayscale0_dma: Transfer completed in 11.485 us
732621875: global: Timer #0 started at tick 732621875
732663125: global: Timer #1 started at tick 732663125
732819375: global: Timer #1 stopped at tick 732819375. Duration: 156250
733138750: global: DAG ID = 5
733152500: global: Node ID = 1
733171875: global: Node deadline difference = -16501
733184375: global: Predicted memory time / byte = 0.000196004 us/byte
733196875: global: Predicted memory time = 22.4793 us
733209375: global: Predicted memory time / byte = 0.000304932 us/byte
********************************************************************************
system.acctest.isp0.compute
   ========= Performance Analysis =============
   Setup Time:                      0.175473seconds
   Simulation Time:                 566.457544seconds
   System Clock:                    1.000000GHz
   Transistor Latency:              1ns
   Runtime:                         34882 cycles
   Runtime:                         34.882000 us
   Stalls:                          1 cycles
   Executed Nodes:                  34880 cycles

********************************************************************************
   ========= Performance Analysis =================
   Setup Time:                      175472992.000000ns
   Simulation Time:                 566457543684.000000ns
   System Clock:                    1.000000GHz
   Transistor Latency:              0ns
   Runtime:                         34882 cycles
   Runtime:                         0.000003 seconds
   Stalls:                          1 cycles
       Load Only:                   0 cycles
       Store Only:                  1 cycles
       Compute Only:                0 cycles
       Compute & Store:             0 cycles
       Load & Store:                0 cycles
       Load & Compute:              0 cycles
       Load & Compute & Store:      0 cycles
   Executed Nodes:                  34880 cycles
       Load Only:                   0 cycles
       Store Only:                  1 cycles
       Compute Only:                3453 cycles
       Compute & Store:             19014 cycles
       Load & Store:                0 cycles
       Load & Compute:              2467 cycles
       Load & Compute & Store:      9945 cycles

   ========= Runtime FU's ========= (Max | Avg) ===
   Counter FU's:                      10 | 0.118075
   Integer Add/Sub FU's:              76 | 0.082082
   Integer Mul/Div FU's:              11 | 0.043888
   Integer Shifter FU's:              42 | 0.055974
   Integer Bitwise FU's:               4 | 0.059443
   Floating Point Float Add/Sub:      53 | 0.116839
   Floating Point Double Add/Sub:      0 | 0.000000
   Floating Point Float Mul/Div:      76 | 0.625626
   Floating Point Double Mul/Div:      0 | 0.000000
   0 Cycle Compare FU's:              85 | 0.664984
   GEP Instruction FU's:              33 | 0.117424
   Type Conversion FU's:             110 | 0.379700

   ========= Static FU's ==========================
   Counter FU's:                    0
   Integer Add/Sub FU's:            0
   Integer Mul/Div FU's:            0
   Integer Shifter FU's:            0
   Integer Bitwise FU's:            0
   Floating Point Float Add/Sub:    0
   Floating Point Double Add/Sub:   0
   Floating Point Float Mul/Div:    0
   Floating Point Double Mul/Div:   0
   0 Cycle Compare FU's:            0
   GEP Instruction FU's:            0
   Type Conversion FU's:            0
   Other:                           0

   ========= Pipeline Register Usage =============
   Total Number of Registers:       1620
   Max Register Usage Per Cycle:    151
   Avg Register Usage Per Cycle:    58.744711
   Avg Register Size (Bytes):       5.073357

   ========= Memory Configuration =================
   Cache Bus Ports:                 0
   Shared Cache Size:               0kB
   Local Bus Ports:                 0
   Private SPM Size:                112kB
   Private Read Ports:              0
   Private Write Ports:             0
   Private Read Bus Width:          64
   Private Write Bus Width:         64
       Memory Reads:                0
       Memory Writes:               0
   ========= Power Analysis ======================
   FU Leakage Power:                1.637787 mW 
   FU Dynamic Power:                9.655087 mW 
   FU Total Power:                  11.292874 mW 

   Registers Leakage Power:          0.021654 mW 
   Registers Dynamic Power:          3.085961 mW 
       Register Reads (Bits):        2049133
       Register Writes (Bits):       2049168
   Registers Total Power:            3.107615 mW

   SPM Leakage Power:               0.061081 mW
   SPM Read Dynamic Power:          18.884297 mW
   SPM Write Dynamic Power:         13.423581 mW
   SPM Total Power:                 32.368959 mW

   Cache Leakage Power:             0.000000 mW
   Cache Read Dynamic Power:        0.000000 mW
   Cache Write Dynamic Power:       0.000000 mW
   Cache Total Power:               0.000000 mW

   Accelerator Power:               14.400490 mW
   Accelerator Power (SPM):         46.769449 mW
   Accelerator Power (Cache):       14.400490 mW

   ========= Area Analysis =======================
   FU Area:                         176023.796875 um^2 (0.176024 mm^2)
   Register Area:                   1760.064941 um^2 (0.001760 mm^2)
   SPM Area:                        2165.394891 um^2 (0.002165 mm^2)
   Cache Area:                      0.000000 um^2 (0.000000 mm^2)

   Accelerator Area:                177783.859375 um^2 (0.177784 mm^2)
   Accelerator Area (SPM):          179949.254266 um^2 (0.179949 mm^2)
   Accelerator Area (Cache):        177783.859375 um^2 (0.177784 mm^2)

   ========= SPM Resizing  =======================
   SPM Optimized Leakage Power:     0.005964 mW
   SPM Opt Area:                    422.108128 um^2

733221875: global: Predicted memory time = 34.972 us
733234375: global: Predicted memory time / byte = 0.000201152 us/byte
733246875: global: Predicted memory time = 9 us
733259375: global: Predicted memory time / byte = 0.000174942 us/byte
733271875: global: Predicted memory time = 11 us
733410000: global: Timer #0 stopped at tick 733410000. Duration: 788125
733424375: global: Number of accelerators running = 3
733545625: global: Timer #0 started at tick 733545625
734011875: global: Timer #3 started at tick 734011875
734212500: global: Timer #3 stopped at tick 734212500. Duration: 200625
734269375: global: Timer #2 started at tick 734269375
734550625: global: Timer #2 stopped at tick 734550625. Duration: 281250
734780000: global: DAG ID = 6
734793750: global: Node ID = 0
734806875: global: Node deadline difference = -128
734819375: global: Predicted memory time / byte = 0 us/byte
734831875: global: Predicted memory time = 0 us
734844375: global: Predicted memory time / byte = 0.000304769 us/byte
734864375: global: Predicted memory time = 20.1306 us
734876875: global: Predicted memory time / byte = 0.000234497 us/byte
734896875: global: Predicted memory time = 3 us
734909375: global: Predicted memory time / byte = 0 us/byte
734921875: global: Predicted memory time = 0 us
735750000: system.acctest.grayscale0_dma: SRC:0x0000000027004224, DST:0x0000000025000020, LEN:49152
736410000: system.acctest.convolution1_dma: Transfer completed in 14.104 us
740036000: system.acctest.isp0_dma: SRC:0x00000000824543c0, DST:0x0000000027000020, LEN:16900
740232500: global: Timer #0 stopped at tick 740232500. Duration: 6686875
740246875: global: Number of accelerators running = 4
740370625: global: Timer #0 started at tick 740370625
740419375: global: Timer #1 started at tick 740419375
740567500: global: Timer #1 stopped at tick 740567500. Duration: 148125
741742000: system.acctest.convolution1_dma: SRC:0x00000000822edb80, DST:0x0000000022130020, LEN:100
741877000: system.acctest.convolution1_dma: Transfer completed in 0.135 us
741980000: global: Timer #0 stopped at tick 741980000. Duration: 1609375
741993750: global: Number of accelerators running = 4
742123125: global: Timer #0 started at tick 742123125
743455000: system.acctest.isp0_dma: Transfer completed in 3.419 us
743525000: global: Timer #0 stopped at tick 743525000. Duration: 1401875
743538750: global: Number of accelerators running = 4
743656250: global: Timer #0 started at tick 743656250
743705000: global: Timer #1 started at tick 743705000
743909375: global: Timer #1 stopped at tick 743909375. Duration: 204375
744997500: global: Timer #0 stopped at tick 744997500. Duration: 1341250
745011250: global: Number of accelerators running = 4
745643000: system.acctest.grayscale0_dma: Transfer completed in 9.893 us
745727500: global: Timer #0 started at tick 745727500
745769375: global: Timer #1 started at tick 745769375
745966250: global: Timer #1 stopped at tick 745966250. Duration: 196875
746888750: global: Timer #0 stopped at tick 746888750. Duration: 1161250
746902500: global: Number of accelerators running = 4
********************************************************************************
system.acctest.grayscale0.compute
   ========= Performance Analysis =============
   Setup Time:                      0.011702seconds
   Simulation Time:                 257.702432seconds
   System Clock:                    1.000000GHz
   Transistor Latency:              1ns
   Runtime:                         10263 cycles
   Runtime:                         10.263000 us
   Stalls:                          1 cycles
   Executed Nodes:                  10261 cycles

********************************************************************************
   ========= Performance Analysis =================
   Setup Time:                      11702077.000000ns
   Simulation Time:                 257702432401.000000ns
   System Clock:                    1.000000GHz
   Transistor Latency:              0ns
   Runtime:                         10263 cycles
   Runtime:                         0.000001 seconds
   Stalls:                          1 cycles
       Load Only:                   0 cycles
       Store Only:                  1 cycles
       Compute Only:                0 cycles
       Compute & Store:             0 cycles
       Load & Store:                0 cycles
       Load & Compute:              0 cycles
       Load & Compute & Store:      0 cycles
   Executed Nodes:                  10261 cycles
       Load Only:                   0 cycles
       Store Only:                  1 cycles
       Compute Only:                88 cycles
       Compute & Store:             344 cycles
       Load & Store:                0 cycles
       Load & Compute:              1981 cycles
       Load & Compute & Store:      7847 cycles

   ========= Runtime FU's ========= (Max | Avg) ===
   Counter FU's:                      24 | 0.199556
   Integer Add/Sub FU's:               0 | 0.000000
   Integer Mul/Div FU's:               8 | 0.199552
   Integer Shifter FU's:               0 | 0.000000
   Integer Bitwise FU's:               1 | 0.000097
   Floating Point Float Add/Sub:      49 | 0.114264
   Floating Point Double Add/Sub:      0 | 0.000000
   Floating Point Float Mul/Div:      42 | 0.114129
   Floating Point Double Mul/Div:      0 | 0.000000
   0 Cycle Compare FU's:               9 | 0.066626
   GEP Instruction FU's:              36 | 0.177452
   Type Conversion FU's:              76 | 0.401969

   ========= Static FU's ==========================
   Counter FU's:                    0
   Integer Add/Sub FU's:            0
   Integer Mul/Div FU's:            0
   Integer Shifter FU's:            0
   Integer Bitwise FU's:            0
   Floating Point Float Add/Sub:    0
   Floating Point Double Add/Sub:   0
   Floating Point Float Mul/Div:    0
   Floating Point Double Mul/Div:   0
   0 Cycle Compare FU's:            0
   GEP Instruction FU's:            0
   Type Conversion FU's:            0
   Other:                           0

   ========= Pipeline Register Usage =============
   Total Number of Registers:       235
   Max Register Usage Per Cycle:    90
   Avg Register Usage Per Cycle:    33.924291
   Avg Register Size (Bytes):       5.841147

   ========= Memory Configuration =================
   Cache Bus Ports:                 0
   Shared Cache Size:               0kB
   Local Bus Ports:                 0
   Private SPM Size:                176kB
   Private Read Ports:              0
   Private Write Ports:             0
   Private Read Bus Width:          64
   Private Write Bus Width:         64
       Memory Reads:                0
       Memory Writes:               0
   ========= Power Analysis ======================
   FU Leakage Power:                1.178269 mW 
   FU Dynamic Power:                0.617392 mW 
   FU Total Power:                  1.795662 mW 

   Registers Leakage Power:          0.014185 mW 
   Registers Dynamic Power:          0.101057 mW 
       Register Reads (Bits):        348165
       Register Writes (Bits):       348168
   Registers Total Power:            0.115242 mW

   SPM Leakage Power:               0.089881 mW
   SPM Read Dynamic Power:          12.841663 mW
   SPM Write Dynamic Power:         7.385230 mW
   SPM Total Power:                 20.316774 mW

   Cache Leakage Power:             0.000000 mW
   Cache Read Dynamic Power:        0.000000 mW
   Cache Write Dynamic Power:       0.000000 mW
   Cache Total Power:               0.000000 mW

   Accelerator Power:               1.910904 mW
   Accelerator Power (SPM):         22.227678 mW
   Accelerator Power (Cache):       1.910904 mW

   ========= Area Analysis =======================
   FU Area:                         143348.187500 um^2 (0.143348 mm^2)
   Register Area:                   1152.968140 um^2 (0.001153 mm^2)
   SPM Area:                        3573.642862 um^2 (0.003574 mm^2)
   Cache Area:                      0.000000 um^2 (0.000000 mm^2)

   Accelerator Area:                144501.156250 um^2 (0.144501 mm^2)
   Accelerator Area (SPM):          148074.799112 um^2 (0.148075 mm^2)
   Accelerator Area (Cache):        144501.156250 um^2 (0.144501 mm^2)

   ========= SPM Resizing  =======================
   SPM Optimized Leakage Power:     0.003633 mW
   SPM Opt Area:                    364.024374 um^2

756989375: global: Timer #0 started at tick 756989375
757280625: global: Timer #3 started at tick 757280625
757425625: global: Timer #3 stopped at tick 757425625. Duration: 145000
757817500: global: Timer #2 started at tick 757817500
758160625: global: Timer #2 stopped at tick 758160625. Duration: 343125
771367375: system.acctest.grayscale0_dma: SRC:0x000000002500c020, DST:0x00000000824025c0, LEN:65536
771757500: global: Timer #0 stopped at tick 771757500. Duration: 14768125
771771875: global: Number of accelerators running = 4
777725375: system.acctest.grayscale0_dma: Transfer completed in 6.358 us
777800625: global: Timer #0 started at tick 777800625
777837500: global: Timer #1 started at tick 777837500
777996875: global: Timer #1 stopped at tick 777996875. Duration: 159375
778301250: global: DAG ID = 6
778315000: global: Node ID = 1
778334375: global: Node deadline difference = -16456
778346875: global: Predicted memory time / byte = 0.000174942 us/byte
778359375: global: Predicted memory time = 20.0638 us
778371875: global: Predicted memory time / byte = 0.000174942 us/byte
778384375: global: Predicted memory time = 20.0638 us
778396875: global: Predicted memory time / byte = 0.00020109 us/byte
778409375: global: Predicted memory time = 9 us
778421875: global: Predicted memory time / byte = 9.66949e-05 us/byte
778434375: global: Predicted memory time = 6 us
778570625: global: Timer #0 stopped at tick 778570625. Duration: 770000
778584375: global: Number of accelerators running = 3
********************************************************************************
system.acctest.isp0.compute
   ========= Performance Analysis =============
   Setup Time:                      0.197260seconds
   Simulation Time:                 588.664128seconds
   System Clock:                    1.000000GHz
   Transistor Latency:              1ns
   Runtime:                         34884 cycles
   Runtime:                         34.884000 us
   Stalls:                          1 cycles
   Executed Nodes:                  34882 cycles

********************************************************************************
   ========= Performance Analysis =================
   Setup Time:                      197260208.000000ns
   Simulation Time:                 588664128076.000000ns
   System Clock:                    1.000000GHz
   Transistor Latency:              0ns
   Runtime:                         34884 cycles
   Runtime:                         0.000003 seconds
   Stalls:                          1 cycles
       Load Only:                   0 cycles
       Store Only:                  1 cycles
       Compute Only:                0 cycles
       Compute & Store:             0 cycles
       Load & Store:                0 cycles
       Load & Compute:              0 cycles
       Load & Compute & Store:      0 cycles
   Executed Nodes:                  34882 cycles
       Load Only:                   0 cycles
       Store Only:                  1 cycles
       Compute Only:                3458 cycles
       Compute & Store:             19000 cycles
       Load & Store:                0 cycles
       Load & Compute:              2495 cycles
       Load & Compute & Store:      9928 cycles

   ========= Runtime FU's ========= (Max | Avg) ===
   Counter FU's:                      10 | 0.118068
   Integer Add/Sub FU's:              68 | 0.091695
   Integer Mul/Div FU's:              11 | 0.043886
   Integer Shifter FU's:              45 | 0.052262
   Integer Bitwise FU's:               4 | 0.059440
   Floating Point Float Add/Sub:      50 | 0.123933
   Floating Point Double Add/Sub:      0 | 0.000000
   Floating Point Float Mul/Div:      76 | 0.624898
   Floating Point Double Mul/Div:      0 | 0.000000
   0 Cycle Compare FU's:              85 | 0.664773
   GEP Instruction FU's:              33 | 0.117418
   Type Conversion FU's:             111 | 0.376343

   ========= Static FU's ==========================
   Counter FU's:                    0
   Integer Add/Sub FU's:            0
   Integer Mul/Div FU's:            0
   Integer Shifter FU's:            0
   Integer Bitwise FU's:            0
   Floating Point Float Add/Sub:    0
   Floating Point Double Add/Sub:   0
   Floating Point Float Mul/Div:    0
   Floating Point Double Mul/Div:   0
   0 Cycle Compare FU's:            0
   GEP Instruction FU's:            0
   Type Conversion FU's:            0
   Other:                           0

   ========= Pipeline Register Usage =============
   Total Number of Registers:       1620
   Max Register Usage Per Cycle:    150
   Avg Register Usage Per Cycle:    58.741343
   Avg Register Size (Bytes):       5.073357

   ========= Memory Configuration =================
   Cache Bus Ports:                 0
   Shared Cache Size:               0kB
   Local Bus Ports:                 0
   Private SPM Size:                112kB
   Private Read Ports:              0
   Private Write Ports:             0
   Private Read Bus Width:          64
   Private Write Bus Width:         64
       Memory Reads:                0
       Memory Writes:               0
   ========= Power Analysis ======================
   FU Leakage Power:                1.578062 mW 
   FU Dynamic Power:                9.659127 mW 
   FU Total Power:                  11.237189 mW 

   Registers Leakage Power:          0.021654 mW 
   Registers Dynamic Power:          3.086138 mW 
       Register Reads (Bits):        2049133
       Register Writes (Bits):       2049168
   Registers Total Power:            3.107792 mW

   SPM Leakage Power:               0.061081 mW
   SPM Read Dynamic Power:          22.020363 mW
   SPM Write Dynamic Power:         14.973773 mW
   SPM Total Power:                 37.055217 mW

   Cache Leakage Power:             0.000000 mW
   Cache Read Dynamic Power:        0.000000 mW
   Cache Write Dynamic Power:       0.000000 mW
   Cache Total Power:               0.000000 mW

   Accelerator Power:               14.344981 mW
   Accelerator Power (SPM):         51.400199 mW
   Accelerator Power (Cache):       14.344981 mW

   ========= Area Analysis =======================
   FU Area:                         170581.953125 um^2 (0.170582 mm^2)
   Register Area:                   1760.064941 um^2 (0.001760 mm^2)
   SPM Area:                        2165.394891 um^2 (0.002165 mm^2)
   Cache Area:                      0.000000 um^2 (0.000000 mm^2)

   Accelerator Area:                172342.015625 um^2 (0.172342 mm^2)
   Accelerator Area (SPM):          174507.410516 um^2 (0.174507 mm^2)
   Accelerator Area (Cache):        172342.015625 um^2 (0.172342 mm^2)

   ========= SPM Resizing  =======================
   SPM Optimized Leakage Power:     0.005889 mW
   SPM Opt Area:                    420.258807 um^2

779718125: global: Timer #0 started at tick 779718125
779964375: global: Timer #3 started at tick 779964375
780164375: global: Timer #3 stopped at tick 780164375. Duration: 200000
780213750: global: Timer #2 started at tick 780213750
780334375: global: Timer #2 stopped at tick 780334375. Duration: 120625
780563125: global: DAG ID = 7
780576875: global: Node ID = 0
780590000: global: Node deadline difference = -82
780602500: global: Predicted memory time / byte = 0 us/byte
780615000: global: Predicted memory time = 0 us
780627500: global: Predicted memory time / byte = 0.000174942 us/byte
780647500: global: Predicted memory time = 11.5553 us
780660000: global: Predicted memory time / byte = 0.000209172 us/byte
780680000: global: Predicted memory time = 3 us
780692500: global: Predicted memory time / byte = 0 us/byte
780705000: global: Predicted memory time = 0 us
781535875: system.acctest.grayscale0_dma: SRC:0x0000000027010224, DST:0x0000000025000020, LEN:49152
785797000: system.acctest.isp0_dma: SRC:0x0000000082018a00, DST:0x0000000027000020, LEN:16900
786007500: global: Timer #0 stopped at tick 786007500. Duration: 6289375
786016875: global: Number of accelerators running = 4
789116000: system.acctest.isp0_dma: Transfer completed in 3.319 us
789191875: global: Timer #0 started at tick 789191875
789230000: global: Timer #1 started at tick 789230000
789426250: global: Timer #1 stopped at tick 789426250. Duration: 196250
790528125: global: Timer #0 stopped at tick 790528125. Duration: 1336250
790540000: global: Number of accelerators running = 4
791099875: system.acctest.grayscale0_dma: Transfer completed in 9.564 us
791174375: global: Timer #0 started at tick 791174375
791212500: global: Timer #1 started at tick 791212500
791409375: global: Timer #1 stopped at tick 791409375. Duration: 196875
792337500: global: Timer #0 stopped at tick 792337500. Duration: 1163125
792349375: global: Number of accelerators running = 4
********************************************************************************
system.acctest.grayscale0.compute
   ========= Performance Analysis =============
   Setup Time:                      0.024132seconds
   Simulation Time:                 266.281115seconds
   System Clock:                    1.000000GHz
   Transistor Latency:              1ns
   Runtime:                         10263 cycles
   Runtime:                         10.263000 us
   Stalls:                          1 cycles
   Executed Nodes:                  10261 cycles

********************************************************************************
   ========= Performance Analysis =================
   Setup Time:                      24131847.000000ns
   Simulation Time:                 266281115084.000031ns
   System Clock:                    1.000000GHz
   Transistor Latency:              0ns
   Runtime:                         10263 cycles
   Runtime:                         0.000001 seconds
   Stalls:                          1 cycles
       Load Only:                   0 cycles
       Store Only:                  1 cycles
       Compute Only:                0 cycles
       Compute & Store:             0 cycles
       Load & Store:                0 cycles
       Load & Compute:              0 cycles
       Load & Compute & Store:      0 cycles
   Executed Nodes:                  10261 cycles
       Load Only:                   0 cycles
       Store Only:                  1 cycles
       Compute Only:                88 cycles
       Compute & Store:             344 cycles
       Load & Store:                0 cycles
       Load & Compute:              1981 cycles
       Load & Compute & Store:      7847 cycles

   ========= Runtime FU's ========= (Max | Avg) ===
   Counter FU's:                      24 | 0.199556
   Integer Add/Sub FU's:               0 | 0.000000
   Integer Mul/Div FU's:               8 | 0.199552
   Integer Shifter FU's:               0 | 0.000000
   Integer Bitwise FU's:               1 | 0.000097
   Floating Point Float Add/Sub:      49 | 0.114264
   Floating Point Double Add/Sub:      0 | 0.000000
   Floating Point Float Mul/Div:      42 | 0.114129
   Floating Point Double Mul/Div:      0 | 0.000000
   0 Cycle Compare FU's:               9 | 0.066626
   GEP Instruction FU's:              36 | 0.177452
   Type Conversion FU's:              76 | 0.401969

   ========= Static FU's ==========================
   Counter FU's:                    0
   Integer Add/Sub FU's:            0
   Integer Mul/Div FU's:            0
   Integer Shifter FU's:            0
   Integer Bitwise FU's:            0
   Floating Point Float Add/Sub:    0
   Floating Point Double Add/Sub:   0
   Floating Point Float Mul/Div:    0
   Floating Point Double Mul/Div:   0
   0 Cycle Compare FU's:            0
   GEP Instruction FU's:            0
   Type Conversion FU's:            0
   Other:                           0

   ========= Pipeline Register Usage =============
   Total Number of Registers:       235
   Max Register Usage Per Cycle:    90
   Avg Register Usage Per Cycle:    33.924291
   Avg Register Size (Bytes):       5.841147

   ========= Memory Configuration =================
   Cache Bus Ports:                 0
   Shared Cache Size:               0kB
   Local Bus Ports:                 0
   Private SPM Size:                176kB
   Private Read Ports:              0
   Private Write Ports:             0
   Private Read Bus Width:          64
   Private Write Bus Width:         64
       Memory Reads:                0
       Memory Writes:               0
   ========= Power Analysis ======================
   FU Leakage Power:                1.178269 mW 
   FU Dynamic Power:                0.617392 mW 
   FU Total Power:                  1.795662 mW 

   Registers Leakage Power:          0.014185 mW 
   Registers Dynamic Power:          0.101057 mW 
       Register Reads (Bits):        348165
       Register Writes (Bits):       348168
   Registers Total Power:            0.115242 mW

   SPM Leakage Power:               0.089881 mW
   SPM Read Dynamic Power:          14.197905 mW
   SPM Write Dynamic Power:         8.746336 mW
   SPM Total Power:                 23.034123 mW

   Cache Leakage Power:             0.000000 mW
   Cache Read Dynamic Power:        0.000000 mW
   Cache Write Dynamic Power:       0.000000 mW
   Cache Total Power:               0.000000 mW

   Accelerator Power:               1.910904 mW
   Accelerator Power (SPM):         24.945026 mW
   Accelerator Power (Cache):       1.910904 mW

   ========= Area Analysis =======================
   FU Area:                         143348.187500 um^2 (0.143348 mm^2)
   Register Area:                   1152.968140 um^2 (0.001153 mm^2)
   SPM Area:                        3573.642862 um^2 (0.003574 mm^2)
   Cache Area:                      0.000000 um^2 (0.000000 mm^2)

   Accelerator Area:                144501.156250 um^2 (0.144501 mm^2)
   Accelerator Area (SPM):          148074.799112 um^2 (0.148075 mm^2)
   Accelerator Area (Cache):        144501.156250 um^2 (0.144501 mm^2)

   ========= SPM Resizing  =======================
   SPM Optimized Leakage Power:     0.003633 mW
   SPM Opt Area:                    364.024374 um^2

802432500: global: Timer #0 started at tick 802432500
802675625: global: Timer #3 started at tick 802675625
802821250: global: Timer #3 stopped at tick 802821250. Duration: 145625
803204375: global: Timer #2 started at tick 803204375
803371875: global: Timer #2 stopped at tick 803371875. Duration: 167500
816558750: system.acctest.grayscale0_dma: SRC:0x000000002500c020, DST:0x0000000082464780, LEN:65536
816914375: global: Timer #0 stopped at tick 816914375. Duration: 14481875
816923750: global: Number of accelerators running = 4
822848750: system.acctest.grayscale0_dma: Transfer completed in 6.29 us
822923750: global: Timer #0 started at tick 822923750
822960625: global: Timer #1 started at tick 822960625
823116875: global: Timer #1 stopped at tick 823116875. Duration: 156250
823421250: global: DAG ID = 7
823435000: global: Node ID = 1
823454375: global: Node deadline difference = -16411
823466875: global: Predicted memory time / byte = 9.66949e-05 us/byte
823479375: global: Predicted memory time = 11.0898 us
823491875: global: Predicted memory time / byte = 9.66949e-05 us/byte
823504375: global: Predicted memory time = 11.0898 us
823516875: global: Predicted memory time / byte = 0.000194132 us/byte
823529375: global: Predicted memory time = 9 us
823541875: global: Predicted memory time / byte = 9.56726e-05 us/byte
823554375: global: Predicted memory time = 6 us
823678125: global: Timer #0 stopped at tick 823678125. Duration: 754375
823690000: global: Number of accelerators running = 3
********************************************************************************
system.acctest.isp0.compute
   ========= Performance Analysis =============
   Setup Time:                      0.644688seconds
   Simulation Time:                 626.078660seconds
   System Clock:                    1.000000GHz
   Transistor Latency:              1ns
   Runtime:                         34884 cycles
   Runtime:                         34.884000 us
   Stalls:                          1 cycles
   Executed Nodes:                  34882 cycles

********************************************************************************
   ========= Performance Analysis =================
   Setup Time:                      644688071.000000ns
   Simulation Time:                 626078659874.000000ns
   System Clock:                    1.000000GHz
   Transistor Latency:              0ns
   Runtime:                         34884 cycles
   Runtime:                         0.000003 seconds
   Stalls:                          1 cycles
       Load Only:                   0 cycles
       Store Only:                  1 cycles
       Compute Only:                0 cycles
       Compute & Store:             0 cycles
       Load & Store:                0 cycles
       Load & Compute:              0 cycles
       Load & Compute & Store:      0 cycles
   Executed Nodes:                  34882 cycles
       Load Only:                   0 cycles
       Store Only:                  1 cycles
       Compute Only:                3458 cycles
       Compute & Store:             19000 cycles
       Load & Store:                0 cycles
       Load & Compute:              2495 cycles
       Load & Compute & Store:      9928 cycles

   ========= Runtime FU's ========= (Max | Avg) ===
   Counter FU's:                      10 | 0.118068
   Integer Add/Sub FU's:              68 | 0.091695
   Integer Mul/Div FU's:              11 | 0.043886
   Integer Shifter FU's:              45 | 0.052262
   Integer Bitwise FU's:               4 | 0.059440
   Floating Point Float Add/Sub:      50 | 0.123932
   Floating Point Double Add/Sub:      0 | 0.000000
   Floating Point Float Mul/Div:      76 | 0.624868
   Floating Point Double Mul/Div:      0 | 0.000000
   0 Cycle Compare FU's:              85 | 0.664773
   GEP Instruction FU's:              33 | 0.117418
   Type Conversion FU's:             111 | 0.376346

   ========= Static FU's ==========================
   Counter FU's:                    0
   Integer Add/Sub FU's:            0
   Integer Mul/Div FU's:            0
   Integer Shifter FU's:            0
   Integer Bitwise FU's:            0
   Floating Point Float Add/Sub:    0
   Floating Point Double Add/Sub:   0
   Floating Point Float Mul/Div:    0
   Floating Point Double Mul/Div:   0
   0 Cycle Compare FU's:            0
   GEP Instruction FU's:            0
   Type Conversion FU's:            0
   Other:                           0

   ========= Pipeline Register Usage =============
   Total Number of Registers:       1620
   Max Register Usage Per Cycle:    150
   Avg Register Usage Per Cycle:    58.741343
   Avg Register Size (Bytes):       5.073357

   ========= Memory Configuration =================
   Cache Bus Ports:                 0
   Shared Cache Size:               0kB
   Local Bus Ports:                 0
   Private SPM Size:                112kB
   Private Read Ports:              0
   Private Write Ports:             0
   Private Read Bus Width:          64
   Private Write Bus Width:         64
       Memory Reads:                0
       Memory Writes:               0
   ========= Power Analysis ======================
   FU Leakage Power:                1.578062 mW 
   FU Dynamic Power:                9.659119 mW 
   FU Total Power:                  11.237181 mW 

   Registers Leakage Power:          0.021654 mW 
   Registers Dynamic Power:          3.086138 mW 
       Register Reads (Bits):        2049133
       Register Writes (Bits):       2049168
   Registers Total Power:            3.107792 mW

   SPM Leakage Power:               0.061081 mW
   SPM Read Dynamic Power:          24.677817 mW
   SPM Write Dynamic Power:         16.524603 mW
   SPM Total Power:                 41.263502 mW

   Cache Leakage Power:             0.000000 mW
   Cache Read Dynamic Power:        0.000000 mW
   Cache Write Dynamic Power:       0.000000 mW
   Cache Total Power:               0.000000 mW

   Accelerator Power:               14.344973 mW
   Accelerator Power (SPM):         55.608475 mW
   Accelerator Power (Cache):       14.344973 mW

   ========= Area Analysis =======================
   FU Area:                         170581.953125 um^2 (0.170582 mm^2)
   Register Area:                   1760.064941 um^2 (0.001760 mm^2)
   SPM Area:                        2165.394891 um^2 (0.002165 mm^2)
   Cache Area:                      0.000000 um^2 (0.000000 mm^2)

   Accelerator Area:                172342.015625 um^2 (0.172342 mm^2)
   Accelerator Area (SPM):          174507.410516 um^2 (0.174507 mm^2)
   Accelerator Area (Cache):        172342.015625 um^2 (0.172342 mm^2)

   ========= SPM Resizing  =======================
   SPM Optimized Leakage Power:     0.005889 mW
   SPM Opt Area:                    420.258807 um^2

825225625: global: Timer #0 started at tick 825225625
825528125: global: Timer #3 started at tick 825528125
825732500: global: Timer #3 stopped at tick 825732500. Duration: 204375
825777500: global: Timer #2 started at tick 825777500
826179375: global: Timer #2 stopped at tick 826179375. Duration: 401875
826403125: global: DAG ID = 0
826416875: global: Node ID = 0
826430000: global: Node deadline difference = -13305
826442500: global: Predicted memory time / byte = 0 us/byte
826455000: global: Predicted memory time = 0 us
826467500: global: Predicted memory time / byte = 9.66949e-05 us/byte
826487500: global: Predicted memory time = 6.38689 us
826500000: global: Predicted memory time / byte = 0.00019568 us/byte
826520000: global: Predicted memory time = 3 us
826532500: global: Predicted memory time / byte = 0 us/byte
826545000: global: Predicted memory time = 0 us
827367375: system.acctest.grayscale0_dma: SRC:0x0000000027004224, DST:0x0000000025000020, LEN:49152
831737000: system.acctest.isp0_dma: SRC:0x00000000820cdec0, DST:0x0000000027000020, LEN:16900
831928750: global: Timer #0 stopped at tick 831928750. Duration: 6703125
831938125: global: Number of accelerators running = 4
835040000: system.acctest.isp0_dma: Transfer completed in 3.303 us
835114375: global: Timer #0 started at tick 835114375
835152500: global: Timer #1 started at tick 835152500
835348750: global: Timer #1 stopped at tick 835348750. Duration: 196250
836445625: global: Timer #0 stopped at tick 836445625. Duration: 1331250
836457500: global: Number of accelerators running = 4
836940375: system.acctest.grayscale0_dma: Transfer completed in 9.573 us
837015625: global: Timer #0 started at tick 837015625
837053750: global: Timer #1 started at tick 837053750
837250625: global: Timer #1 stopped at tick 837250625. Duration: 196875
838170625: global: Timer #0 stopped at tick 838170625. Duration: 1155000
838182500: global: Number of accelerators running = 4
********************************************************************************
system.acctest.grayscale0.compute
   ========= Performance Analysis =============
   Setup Time:                      0.026909seconds
   Simulation Time:                 274.952754seconds
   System Clock:                    1.000000GHz
   Transistor Latency:              1ns
   Runtime:                         10263 cycles
   Runtime:                         10.263000 us
   Stalls:                          1 cycles
   Executed Nodes:                  10261 cycles

********************************************************************************
   ========= Performance Analysis =================
   Setup Time:                      26908895.000000ns
   Simulation Time:                 274952754497.000000ns
   System Clock:                    1.000000GHz
   Transistor Latency:              0ns
   Runtime:                         10263 cycles
   Runtime:                         0.000001 seconds
   Stalls:                          1 cycles
       Load Only:                   0 cycles
       Store Only:                  1 cycles
       Compute Only:                0 cycles
       Compute & Store:             0 cycles
       Load & Store:                0 cycles
       Load & Compute:              0 cycles
       Load & Compute & Store:      0 cycles
   Executed Nodes:                  10261 cycles
       Load Only:                   0 cycles
       Store Only:                  1 cycles
       Compute Only:                88 cycles
       Compute & Store:             344 cycles
       Load & Store:                0 cycles
       Load & Compute:              1981 cycles
       Load & Compute & Store:      7847 cycles

   ========= Runtime FU's ========= (Max | Avg) ===
   Counter FU's:                      24 | 0.199556
   Integer Add/Sub FU's:               0 | 0.000000
   Integer Mul/Div FU's:               8 | 0.199552
   Integer Shifter FU's:               0 | 0.000000
   Integer Bitwise FU's:               1 | 0.000097
   Floating Point Float Add/Sub:      49 | 0.114264
   Floating Point Double Add/Sub:      0 | 0.000000
   Floating Point Float Mul/Div:      42 | 0.114129
   Floating Point Double Mul/Div:      0 | 0.000000
   0 Cycle Compare FU's:               9 | 0.066626
   GEP Instruction FU's:              36 | 0.177452
   Type Conversion FU's:              76 | 0.401969

   ========= Static FU's ==========================
   Counter FU's:                    0
   Integer Add/Sub FU's:            0
   Integer Mul/Div FU's:            0
   Integer Shifter FU's:            0
   Integer Bitwise FU's:            0
   Floating Point Float Add/Sub:    0
   Floating Point Double Add/Sub:   0
   Floating Point Float Mul/Div:    0
   Floating Point Double Mul/Div:   0
   0 Cycle Compare FU's:            0
   GEP Instruction FU's:            0
   Type Conversion FU's:            0
   Other:                           0

   ========= Pipeline Register Usage =============
   Total Number of Registers:       235
   Max Register Usage Per Cycle:    90
   Avg Register Usage Per Cycle:    33.924291
   Avg Register Size (Bytes):       5.841147

   ========= Memory Configuration =================
   Cache Bus Ports:                 0
   Shared Cache Size:               0kB
   Local Bus Ports:                 0
   Private SPM Size:                176kB
   Private Read Ports:              0
   Private Write Ports:             0
   Private Read Bus Width:          64
   Private Write Bus Width:         64
       Memory Reads:                0
       Memory Writes:               0
   ========= Power Analysis ======================
   FU Leakage Power:                1.178269 mW 
   FU Dynamic Power:                0.617392 mW 
   FU Total Power:                  1.795662 mW 

   Registers Leakage Power:          0.014185 mW 
   Registers Dynamic Power:          0.101057 mW 
       Register Reads (Bits):        348165
       Register Writes (Bits):       348168
   Registers Total Power:            0.115242 mW

   SPM Leakage Power:               0.089881 mW
   SPM Read Dynamic Power:          15.554785 mW
   SPM Write Dynamic Power:         9.682262 mW
   SPM Total Power:                 25.326928 mW

   Cache Leakage Power:             0.000000 mW
   Cache Read Dynamic Power:        0.000000 mW
   Cache Write Dynamic Power:       0.000000 mW
   Cache Total Power:               0.000000 mW

   Accelerator Power:               1.910904 mW
   Accelerator Power (SPM):         27.237831 mW
   Accelerator Power (Cache):       1.910904 mW

   ========= Area Analysis =======================
   FU Area:                         143348.187500 um^2 (0.143348 mm^2)
   Register Area:                   1152.968140 um^2 (0.001153 mm^2)
   SPM Area:                        3573.642862 um^2 (0.003574 mm^2)
   Cache Area:                      0.000000 um^2 (0.000000 mm^2)

   Accelerator Area:                144501.156250 um^2 (0.144501 mm^2)
   Accelerator Area (SPM):          148074.799112 um^2 (0.148075 mm^2)
   Accelerator Area (Cache):        144501.156250 um^2 (0.144501 mm^2)

   ========= SPM Resizing  =======================
   SPM Optimized Leakage Power:     0.003633 mW
   SPM Opt Area:                    364.024374 um^2

848272500: global: Timer #0 started at tick 848272500
848571250: global: Timer #3 started at tick 848571250
848706875: global: Timer #3 stopped at tick 848706875. Duration: 135625
848764375: global: Timer #2 started at tick 848764375
848941250: global: Timer #2 stopped at tick 848941250. Duration: 176875
862098750: system.acctest.grayscale0_dma: SRC:0x000000002500c020, DST:0x0000000082028dc0, LEN:65536
862454375: global: Timer #0 stopped at tick 862454375. Duration: 14181875
862463750: global: Number of accelerators running = 4
868387750: system.acctest.grayscale0_dma: Transfer completed in 6.289 us
868463750: global: Timer #0 started at tick 868463750
868510000: global: Timer #1 started at tick 868510000
868666250: global: Timer #1 stopped at tick 868666250. Duration: 156250
868970625: global: DAG ID = 0
868984375: global: Node ID = 1
869003750: global: Node deadline difference = -16366
869016250: global: Predicted memory time / byte = 9.56726e-05 us/byte
869028750: global: Predicted memory time = 10.9725 us
869041250: global: Predicted memory time / byte = 9.56726e-05 us/byte
869053750: global: Predicted memory time = 10.9725 us
869066250: global: Predicted memory time / byte = 0.000194336 us/byte
869078750: global: Predicted memory time = 9 us
869091250: global: Predicted memory time / byte = 9.58099e-05 us/byte
869103750: global: Predicted memory time = 6 us
869219375: global: Timer #0 stopped at tick 869219375. Duration: 755625
869231250: global: Number of accelerators running = 3
********************************************************************************
system.acctest.isp0.compute
   ========= Performance Analysis =============
   Setup Time:                      0.666703seconds
   Simulation Time:                 637.299777seconds
   System Clock:                    1.000000GHz
   Transistor Latency:              1ns
   Runtime:                         34884 cycles
   Runtime:                         34.884000 us
   Stalls:                          1 cycles
   Executed Nodes:                  34882 cycles

********************************************************************************
   ========= Performance Analysis =================
   Setup Time:                      666703177.000000ns
   Simulation Time:                 637299777401.000000ns
   System Clock:                    1.000000GHz
   Transistor Latency:              0ns
   Runtime:                         34884 cycles
   Runtime:                         0.000003 seconds
   Stalls:                          1 cycles
       Load Only:                   0 cycles
       Store Only:                  1 cycles
       Compute Only:                0 cycles
       Compute & Store:             0 cycles
       Load & Store:                0 cycles
       Load & Compute:              0 cycles
       Load & Compute & Store:      0 cycles
   Executed Nodes:                  34882 cycles
       Load Only:                   0 cycles
       Store Only:                  1 cycles
       Compute Only:                3458 cycles
       Compute & Store:             19000 cycles
       Load & Store:                0 cycles
       Load & Compute:              2495 cycles
       Load & Compute & Store:      9928 cycles

   ========= Runtime FU's ========= (Max | Avg) ===
   Counter FU's:                      10 | 0.118068
   Integer Add/Sub FU's:              68 | 0.091695
   Integer Mul/Div FU's:              11 | 0.043886
   Integer Shifter FU's:              45 | 0.052262
   Integer Bitwise FU's:               4 | 0.059440
   Floating Point Float Add/Sub:      50 | 0.123956
   Floating Point Double Add/Sub:      0 | 0.000000
   Floating Point Float Mul/Div:      76 | 0.624801
   Floating Point Double Mul/Div:      0 | 0.000000
   0 Cycle Compare FU's:              85 | 0.664769
   GEP Instruction FU's:              33 | 0.117418
   Type Conversion FU's:             111 | 0.376352

   ========= Static FU's ==========================
   Counter FU's:                    0
   Integer Add/Sub FU's:            0
   Integer Mul/Div FU's:            0
   Integer Shifter FU's:            0
   Integer Bitwise FU's:            0
   Floating Point Float Add/Sub:    0
   Floating Point Double Add/Sub:   0
   Floating Point Float Mul/Div:    0
   Floating Point Double Mul/Div:   0
   0 Cycle Compare FU's:            0
   GEP Instruction FU's:            0
   Type Conversion FU's:            0
   Other:                           0

   ========= Pipeline Register Usage =============
   Total Number of Registers:       1620
   Max Register Usage Per Cycle:    150
   Avg Register Usage Per Cycle:    58.741343
   Avg Register Size (Bytes):       5.073357

   ========= Memory Configuration =================
   Cache Bus Ports:                 0
   Shared Cache Size:               0kB
   Local Bus Ports:                 0
   Private SPM Size:                112kB
   Private Read Ports:              0
   Private Write Ports:             0
   Private Read Bus Width:          64
   Private Write Bus Width:         64
       Memory Reads:                0
       Memory Writes:               0
   ========= Power Analysis ======================
   FU Leakage Power:                1.578062 mW 
   FU Dynamic Power:                9.660067 mW 
   FU Total Power:                  11.238129 mW 

   Registers Leakage Power:          0.021654 mW 
   Registers Dynamic Power:          3.086138 mW 
       Register Reads (Bits):        2049133
       Register Writes (Bits):       2049168
   Registers Total Power:            3.107792 mW

   SPM Leakage Power:               0.061081 mW
   SPM Read Dynamic Power:          26.303286 mW
   SPM Write Dynamic Power:         18.122507 mW
   SPM Total Power:                 44.486874 mW

   Cache Leakage Power:             0.000000 mW
   Cache Read Dynamic Power:        0.000000 mW
   Cache Write Dynamic Power:       0.000000 mW
   Cache Total Power:               0.000000 mW

   Accelerator Power:               14.345921 mW
[...]
   Floating Point Float Add/Sub:       0 | 0.000000
   Floating Point Double Add/Sub:      0 | 0.000000
   Floating Point Float Mul/Div:      34 | 0.044252
   Floating Point Double Mul/Div:      0 | 0.000000
   0 Cycle Compare FU's:             102 | 0.046945
   GEP Instruction FU's:              96 | 0.046835
   Type Conversion FU's:               7 | 0.006782

   ========= Static FU's ==========================
   Counter FU's:                    0
   Integer Add/Sub FU's:            0
   Integer Mul/Div FU's:            0
   Integer Shifter FU's:            0
   Integer Bitwise FU's:            0
   Floating Point Float Add/Sub:    0
   Floating Point Double Add/Sub:   0
   Floating Point Float Mul/Div:    0
   Floating Point Double Mul/Div:   0
   0 Cycle Compare FU's:            0
   GEP Instruction FU's:            0
   Type Conversion FU's:            0
   Other:                           0

   ========= Pipeline Register Usage =============
   Total Number of Registers:       5641
   Max Register Usage Per Cycle:    137
   Avg Register Usage Per Cycle:    12.130992
   Avg Register Size (Bytes):       5.980606

   ========= Memory Configuration =================
   Cache Bus Ports:                 0
   Shared Cache Size:               0kB
   Local Bus Ports:                 0
   Private SPM Size:                256kB
   Private Read Ports:              0
   Private Write Ports:             0
   Private Read Bus Width:          64
   Private Write Bus Width:         64
       Memory Reads:                0
       Memory Writes:               0
   ========= Power Analysis ======================
   FU Leakage Power:                0.045377 mW 
   FU Dynamic Power:                0.142576 mW 
   FU Total Power:                  0.187953 mW 

   Registers Leakage Power:          0.005281 mW 
   Registers Dynamic Power:          0.015326 mW 
       Register Reads (Bits):        132616
       Register Writes (Bits):       133658
   Registers Total Power:            0.020607 mW

   SPM Leakage Power:               0.104100 mW
   SPM Read Dynamic Power:          10.424502 mW
   SPM Write Dynamic Power:         7.509342 mW
   SPM Total Power:                 18.037944 mW

   Cache Leakage Power:             0.000000 mW
   Cache Read Dynamic Power:        0.000000 mW
   Cache Write Dynamic Power:       0.000000 mW
   Cache Total Power:               0.000000 mW

   Accelerator Power:               0.208559 mW
   Accelerator Power (SPM):         18.246504 mW
   Accelerator Power (Cache):       0.208559 mW

   ========= Area Analysis =======================
   FU Area:                         5472.068359 um^2 (0.005472 mm^2)
   Register Area:                   429.271088 um^2 (0.000429 mm^2)
   SPM Area:                        2177.365505 um^2 (0.002177 mm^2)
   Cache Area:                      0.000000 um^2 (0.000000 mm^2)

   Accelerator Area:                5901.339355 um^2 (0.005901 mm^2)
   Accelerator Area (SPM):          8078.704860 um^2 (0.008079 mm^2)
   Accelerator Area (Cache):        5901.339355 um^2 (0.005901 mm^2)

   ========= SPM Resizing  =======================
   SPM Optimized Leakage Power:     0.004248 mW
   SPM Opt Area:                    178.524902 um^2

25965770625: global: Timer #0 started at tick 25965770625
25966131875: global: Timer #3 started at tick 25966131875
25966301250: global: Timer #3 stopped at tick 25966301250. Duration: 169375
25966505625: global: Timer #2 started at tick 25966505625
25966856250: global: Timer #2 stopped at tick 25966856250. Duration: 350625
25980015875: system.acctest.elem_matrix0_dma: SRC:0x0000000024020020, DST:0x0000000082444240, LEN:65536
25980370000: global: Timer #0 stopped at tick 25980370000. Duration: 14599375
25980380000: global: Number of accelerators running = 3
25986307875: system.acctest.elem_matrix0_dma: Transfer completed in 6.292 us
25986383750: global: Timer #0 started at tick 25986383750
25986420625: global: Timer #1 started at tick 25986420625
25986565000: global: Timer #1 stopped at tick 25986565000. Duration: 144375
25986869375: global: DAG ID = 7
25986883125: global: Node ID = 17
25986902500: global: Node deadline difference = 8752
25986915000: global: Predicted memory time / byte = 9.55658e-05 us/byte
25986927500: global: Predicted memory time = 18.789 us
25986940000: global: Predicted memory time / byte = 9.55658e-05 us/byte
25986952500: global: Predicted memory time = 18.789 us
25986965000: global: Predicted memory time / byte = 0.000169426 us/byte
25986977500: global: Predicted memory time = 21 us
25986990000: global: Predicted memory time / byte = 9.57184e-05 us/byte
25987002500: global: Predicted memory time = 6 us
25987114375: global: Timer #0 stopped at tick 25987114375. Duration: 730625
********************************************************************************
system.acctest.convolution1.compute
   ========= Performance Analysis =============
   Setup Time:                      0.330241seconds
   Simulation Time:                 567.916924seconds
   System Clock:                    1.000000GHz
   Transistor Latency:              1ns
   Runtime:                         1545605 cycles
   Runtime:                         1545.605000 us
   Stalls:                          0 cycles
   Executed Nodes:                  1545604 cycles

********************************************************************************
   ========= Performance Analysis =================
   Setup Time:                      330241133.000000ns
   Simulation Time:                 567916924247.000000ns
   System Clock:                    1.000000GHz
   Transistor Latency:              0ns
   Runtime:                         1545605 cycles
   Runtime:                         0.000155 seconds
   Stalls:                          0 cycles
       Load Only:                   0 cycles
       Store Only:                  0 cycles
       Compute Only:                0 cycles
       Compute & Store:             0 cycles
       Load & Store:                0 cycles
       Load & Compute:              0 cycles
       Load & Compute & Store:      0 cycles
   Executed Nodes:                  1545604 cycles
       Load Only:                   0 cycles
       Store Only:                  0 cycles
       Compute Only:                1127276 cycles
       Compute & Store:             16374 cycles
       Load & Store:                0 cycles
       Load & Compute:              401944 cycles
       Load & Compute & Store:      10 cycles

   ========= Runtime FU's ========= (Max | Avg) ===
   Counter FU's:                       3 | 0.112298
   Integer Add/Sub FU's:               4 | 0.211564
   Integer Mul/Div FU's:               1 | 0.052505
   Integer Shifter FU's:              10 | 0.005268
   Integer Bitwise FU's:               2 | 0.184266
   Floating Point Float Add/Sub:       5 | 0.208011
   Floating Point Double Add/Sub:      0 | 0.000000
   Floating Point Float Mul/Div:       4 | 0.065059
   Floating Point Double Mul/Div:      0 | 0.000000
   0 Cycle Compare FU's:              40 | 0.145954
   GEP Instruction FU's:               4 | 0.132683
   Type Conversion FU's:               7 | 0.186618

   ========= Static FU's ==========================
   Counter FU's:                    0
   Integer Add/Sub FU's:            0
   Integer Mul/Div FU's:            0
   Integer Shifter FU's:            0
   Integer Bitwise FU's:            0
   Floating Point Float Add/Sub:    0
   Floating Point Double Add/Sub:   0
   Floating Point Float Mul/Div:    0
   Floating Point Double Mul/Div:   0
   0 Cycle Compare FU's:            0
   GEP Instruction FU's:            0
   Type Conversion FU's:            0
   Other:                           0

   ========= Pipeline Register Usage =============
   Total Number of Registers:       1702
   Max Register Usage Per Cycle:    20
   Avg Register Usage Per Cycle:    6.348199
   Avg Register Size (Bytes):       5.569148

   ========= Memory Configuration =================
   Cache Bus Ports:                 0
   Shared Cache Size:               0kB
   Local Bus Ports:                 0
   Private SPM Size:                192kB
   Private Read Ports:              0
   Private Write Ports:             0
   Private Read Bus Width:          64
   Private Write Bus Width:         64
       Memory Reads:                0
       Memory Writes:               0
   ========= Power Analysis ======================
   FU Leakage Power:                0.196912 mW 
   FU Dynamic Power:                2743.160645 mW 
   FU Total Power:                  2743.357666 mW 

   Registers Leakage Power:          0.002459 mW 
   Registers Dynamic Power:          75.251152 mW 
       Register Reads (Bits):        9811808
       Register Writes (Bits):       10049727
   Registers Total Power:            75.253609 mW

   SPM Leakage Power:               0.078311 mW
   SPM Read Dynamic Power:          43.033463 mW
   SPM Write Dynamic Power:         6.418755 mW
   SPM Total Power:                 49.530529 mW

   Cache Leakage Power:             0.000000 mW
   Cache Read Dynamic Power:        0.000000 mW
   Cache Write Dynamic Power:       0.000000 mW
   Cache Total Power:               0.000000 mW

   Accelerator Power:               2818.611328 mW
   Accelerator Power (SPM):         2868.141857 mW
   Accelerator Power (Cache):       2818.611328 mW

   ========= Area Analysis =======================
   FU Area:                         22931.867188 um^2 (0.022932 mm^2)
   Register Area:                   199.868912 um^2 (0.000200 mm^2)
   SPM Area:                        1748.188735 um^2 (0.001748 mm^2)
   Cache Area:                      0.000000 um^2 (0.000000 mm^2)

   Accelerator Area:                23131.736328 um^2 (0.023132 mm^2)
   Accelerator Area (SPM):          24879.925063 um^2 (0.024880 mm^2)
   Accelerator Area (Cache):        23131.736328 um^2 (0.023132 mm^2)

   ========= SPM Resizing  =======================
   SPM Optimized Leakage Power:     0.002053 mW
   SPM Opt Area:                    145.024971 um^2

25987128125: global: Number of accelerators running = 2
25987245625: global: Timer #0 started at tick 25987245625
25987502500: global: Timer #3 started at tick 25987502500
25987686875: global: Timer #3 stopped at tick 25987686875. Duration: 184375
25987738750: global: Timer #2 started at tick 25987738750
25988224375: global: Timer #2 stopped at tick 25988224375. Duration: 485625
25988505000: global: DAG ID = 6
25988518750: global: Node ID = 16
25988531875: global: Node deadline difference = 12078
25988544375: global: Predicted memory time / byte = 0.000156204 us/byte
25988556875: global: Predicted memory time = 20.4896 us
25988569375: global: Predicted memory time / byte = 9.56421e-05 us/byte
25988589375: global: Predicted memory time = 12.5456 us
25988601875: global: Predicted memory time / byte = 0.00021347 us/byte
25988621875: global: Predicted memory time = 13 us
25988634375: global: Predicted memory time / byte = 0 us/byte
25988646875: global: Predicted memory time = 0 us
26001977375: system.acctest.convolution1_dma: SRC:0x000000008237fec0, DST:0x0000000022100020, LEN:65536
26013964375: system.acctest.convolution1_dma: Transfer completed in 11.987 us
26015765875: system.acctest.elem_matrix0_dma: SRC:0x00000000823e2080, DST:0x0000000024000020, LEN:65536
26016054375: global: Timer #0 stopped at tick 26016054375. Duration: 28808750
26016068750: global: Number of accelerators running = 3
26016267500: global: Timer #0 started at tick 26016267500
26016310000: global: Timer #1 started at tick 26016310000
26016452500: global: Timer #1 stopped at tick 26016452500. Duration: 142500
26017598750: system.acctest.convolution1_dma: SRC:0x00000000822edb80, DST:0x0000000022130020, LEN:100
26017717750: system.acctest.convolution1_dma: Transfer completed in 0.119 us
26017833125: global: Timer #0 stopped at tick 26017833125. Duration: 1565625
26017846875: global: Number of accelerators running = 3
26017964375: global: Timer #0 started at tick 26017964375
26019293125: global: Timer #0 stopped at tick 26019293125. Duration: 1328750
26019307500: global: Number of accelerators running = 3
26027718875: system.acctest.elem_matrix0_dma: Transfer completed in 11.953 us
26027803125: global: Timer #0 started at tick 26027803125
26027838750: global: Timer #1 started at tick 26027838750
26027989375: global: Timer #1 stopped at tick 26027989375. Duration: 150625
26029041625: system.acctest.elem_matrix0_dma: SRC:0x0000000022120020, DST:0x0000000024010020, LEN:65536
26029276250: global: Timer #0 stopped at tick 26029276250. Duration: 1473125
26029290000: global: Number of accelerators running = 3
26039302625: system.acctest.elem_matrix0_dma: Transfer completed in 10.261 us
26039378750: global: Timer #0 started at tick 26039378750
26039413125: global: Timer #1 started at tick 26039413125
26039563750: global: Timer #1 stopped at tick 26039563750. Duration: 150625
26041146250: global: Timer #0 stopped at tick 26041146250. Duration: 1767500
26041160000: global: Number of accelerators running = 3
********************************************************************************
system.acctest.elem_matrix0.compute
   ========= Performance Analysis =============
   Setup Time:                      4.424727seconds
   Simulation Time:                 93.191725seconds
   System Clock:                    1.000000GHz
   Transistor Latency:              1ns
   Runtime:                         10932 cycles
   Runtime:                         10.932000 us
   Stalls:                          1 cycles
   Executed Nodes:                  10930 cycles

********************************************************************************
   ========= Performance Analysis =================
   Setup Time:                      4424726830.000000ns
   Simulation Time:                 93191725053.000000ns
   System Clock:                    1.000000GHz
   Transistor Latency:              0ns
   Runtime:                         10932 cycles
   Runtime:                         0.000001 seconds
   Stalls:                          1 cycles
       Load Only:                   0 cycles
       Store Only:                  1 cycles
       Compute Only:                0 cycles
       Compute & Store:             0 cycles
       Load & Store:                0 cycles
       Load & Compute:              0 cycles
       Load & Compute & Store:      0 cycles
   Executed Nodes:                  10930 cycles
       Load Only:                   0 cycles
       Store Only:                  4 cycles
       Compute Only:                1 cycles
       Compute & Store:             21 cycles
       Load & Store:                0 cycles
       Load & Compute:              6 cycles
       Load & Compute & Store:      10898 cycles

   ========= Runtime FU's ========= (Max | Avg) ===
   Counter FU's:                      32 | 0.046838
   Integer Add/Sub FU's:               0 | 0.000000
   Integer Mul/Div FU's:               0 | 0.000000
   Integer Shifter FU's:               0 | 0.000000
   Integer Bitwise FU's:               1 | 0.000091
   Floating Point Float Add/Sub:       0 | 0.000000
   Floating Point Double Add/Sub:      0 | 0.000000
   Floating Point Float Mul/Div:      34 | 0.044252
   Floating Point Double Mul/Div:      0 | 0.000000
   0 Cycle Compare FU's:             102 | 0.046945
   GEP Instruction FU's:              96 | 0.046835
   Type Conversion FU's:               7 | 0.006782

   ========= Static FU's ==========================
   Counter FU's:                    0
   Integer Add/Sub FU's:            0
   Integer Mul/Div FU's:            0
   Integer Shifter FU's:            0
   Integer Bitwise FU's:            0
   Floating Point Float Add/Sub:    0
   Floating Point Double Add/Sub:   0
   Floating Point Float Mul/Div:    0
   Floating Point Double Mul/Div:   0
   0 Cycle Compare FU's:            0
   GEP Instruction FU's:            0
   Type Conversion FU's:            0
   Other:                           0

   ========= Pipeline Register Usage =============
   Total Number of Registers:       5641
   Max Register Usage Per Cycle:    137
   Avg Register Usage Per Cycle:    12.130992
   Avg Register Size (Bytes):       5.980606

   ========= Memory Configuration =================
   Cache Bus Ports:                 0
   Shared Cache Size:               0kB
   Local Bus Ports:                 0
   Private SPM Size:                256kB
   Private Read Ports:              0
   Private Write Ports:             0
   Private Read Bus Width:          64
   Private Write Bus Width:         64
       Memory Reads:                0
       Memory Writes:               0
   ========= Power Analysis ======================
   FU Leakage Power:                0.045377 mW 
   FU Dynamic Power:                0.142576 mW 
   FU Total Power:                  0.187953 mW 

   Registers Leakage Power:          0.005281 mW 
   Registers Dynamic Power:          0.015326 mW 
       Register Reads (Bits):        132616
       Register Writes (Bits):       133658
   Registers Total Power:            0.020607 mW

   SPM Leakage Power:               0.104100 mW
   SPM Read Dynamic Power:          10.633840 mW
   SPM Write Dynamic Power:         7.712447 mW
   SPM Total Power:                 18.450387 mW

   Cache Leakage Power:             0.000000 mW
   Cache Read Dynamic Power:        0.000000 mW
   Cache Write Dynamic Power:       0.000000 mW
   Cache Total Power:               0.000000 mW

   Accelerator Power:               0.208559 mW
   Accelerator Power (SPM):         18.658947 mW
   Accelerator Power (Cache):       0.208559 mW

   ========= Area Analysis =======================
   FU Area:                         5472.068359 um^2 (0.005472 mm^2)
   Register Area:                   429.271088 um^2 (0.000429 mm^2)
   SPM Area:                        2177.365505 um^2 (0.002177 mm^2)
   Cache Area:                      0.000000 um^2 (0.000000 mm^2)

   Accelerator Area:                5901.339355 um^2 (0.005901 mm^2)
   Accelerator Area (SPM):          8078.704860 um^2 (0.008079 mm^2)
   Accelerator Area (Cache):        5901.339355 um^2 (0.005901 mm^2)

   ========= SPM Resizing  =======================
   SPM Optimized Leakage Power:     0.004248 mW
   SPM Opt Area:                    178.524902 um^2

26051921875: global: Timer #0 started at tick 26051921875
26052160000: global: Timer #3 started at tick 26052160000
26052326875: global: Timer #3 stopped at tick 26052326875. Duration: 166875
26052535625: global: Timer #2 started at tick 26052535625
26052780625: global: Timer #2 stopped at tick 26052780625. Duration: 245000
26065940875: system.acctest.elem_matrix0_dma: SRC:0x0000000024020020, DST:0x00000000823e2080, LEN:65536
26066295000: global: Timer #0 stopped at tick 26066295000. Duration: 14373125
26066305000: global: Number of accelerators running = 3
26072274875: system.acctest.elem_matrix0_dma: Transfer completed in 6.334 us
26072349375: global: Timer #0 started at tick 26072349375
26072386250: global: Timer #1 started at tick 26072386250
26072530625: global: Timer #1 stopped at tick 26072530625. Duration: 144375
26072835625: global: DAG ID = 6
26072849375: global: Node ID = 17
26072868750: global: Node deadline difference = 8838
26072881250: global: Predicted memory time / byte = 9.57184e-05 us/byte
26072893750: global: Predicted memory time = 18.819 us
26072906250: global: Predicted memory time / byte = 9.57184e-05 us/byte
26072918750: global: Predicted memory time = 18.819 us
26072931250: global: Predicted memory time / byte = 0.000169258 us/byte
26072943750: global: Predicted memory time = 21 us
26072956250: global: Predicted memory time / byte = 9.63287e-05 us/byte
26072968750: global: Predicted memory time = 6 us
26073080625: global: Timer #0 stopped at tick 26073080625. Duration: 731250
26073094375: global: Number of accelerators running = 2
Exiting @ tick 26865183000 because user interrupt received
