
---------- Begin Simulation Statistics ----------
final_tick                               680385331250                       # Number of ticks from beginning of simulation (restored from checkpoints and never reset)
host_inst_rate                                    619                       # Simulator instruction rate (inst/s)
host_mem_usage                               23409676                       # Number of bytes of host memory used
host_op_rate                                      635                       # Simulator op (including micro ops) rate (op/s)
host_seconds                                 77851.07                       # Real time elapsed on the host
host_tick_rate                                1413327                       # Simulator tick rate (ticks/s)
sim_freq                                 1000000000000                       # Frequency of simulated ticks
sim_insts                                    48153937                       # Number of instructions simulated
sim_ops                                      49468198                       # Number of ops (including micro ops) simulated
sim_seconds                                  0.110029                       # Number of seconds simulated
sim_ticks                                110029014375                       # Number of ticks simulated
system.acctest.coherency_bus.snoop_filter.hit_multi_requests            0                       # Number of requests hitting in the snoop filter with multiple (>1) holders of the requested data.
system.acctest.coherency_bus.snoop_filter.hit_multi_snoops            0                       # Number of snoops hitting in the snoop filter with multiple (>1) holders of the requested data.
system.acctest.coherency_bus.snoop_filter.hit_single_requests            0                       # Number of requests hitting in the snoop filter with a single holder of the requested data.
system.acctest.coherency_bus.snoop_filter.hit_single_snoops            0                       # Number of snoops hitting in the snoop filter with a single holder of the requested data.
system.acctest.coherency_bus.snoop_filter.tot_requests            0                       # Total number of requests made to the snoop filter.
system.acctest.coherency_bus.snoop_filter.tot_snoops            0                       # Total number of snoops made to the snoop filter.
system.cf0.dma_read_bytes                           0                       # Number of bytes transfered via DMA reads (not PRD).
system.cf0.dma_read_full_pages                      0                       # Number of full page size DMA reads (not PRD).
system.cf0.dma_read_txs                             0                       # Number of DMA read transactions (not PRD).
system.cf0.dma_write_bytes                          0                       # Number of bytes transfered via DMA writes.
system.cf0.dma_write_full_pages                     0                       # Number of full page size DMA writes.
system.cf0.dma_write_txs                            0                       # Number of DMA write transactions.
system.cpu.branchPred.BTBCorrect                    0                       # Number of correct BTB predictions (this stat may not work properly.
system.cpu.branchPred.BTBHitPct             97.393037                       # BTB Hit Percentage
system.cpu.branchPred.BTBHits                  617728                       # Number of BTB hits
system.cpu.branchPred.BTBLookups               634263                       # Number of BTB lookups
system.cpu.branchPred.RASInCorrect                  0                       # Number of incorrect RAS predictions.
system.cpu.branchPred.condIncorrect              9609                       # Number of conditional branches incorrect
system.cpu.branchPred.condPredicted            775780                       # Number of conditional branches predicted
system.cpu.branchPred.indirectHits               2433                       # Number of indirect target hits.
system.cpu.branchPred.indirectLookups            2672                       # Number of indirect predictor lookups.
system.cpu.branchPred.indirectMisses              239                       # Number of indirect misses.
system.cpu.branchPred.lookups                  832681                       # Number of BP lookups
system.cpu.branchPred.usedRAS                    4686                       # Number of times the RAS was used to get a target.
system.cpu.branchPredindirectMispredicted          229                       # Number of mispredicted indirect branches.
system.cpu.committedInsts                     3512820                       # Number of instructions committed
system.cpu.committedOps                       3575153                       # Number of ops (including micro ops) committed
system.cpu.cpi                              50.115412                       # CPI: cycles per instruction
system.cpu.discardedOps                         36581                       # Number of ops (including micro ops) which were discarded before commit
system.cpu.dtb.accesses                             0                       # DTB accesses
system.cpu.dtb.align_faults                         0                       # Number of TLB faults due to alignment restrictions
system.cpu.dtb.domain_faults                        0                       # Number of TLB faults due to domain restrictions
system.cpu.dtb.flush_entries                        0                       # Number of entries that have been flushed from TLB
system.cpu.dtb.flush_tlb                            0                       # Number of times complete TLB was flushed
system.cpu.dtb.flush_tlb_asid                       0                       # Number of times TLB was flushed by ASID
system.cpu.dtb.flush_tlb_mva                        0                       # Number of times TLB was flushed by MVA
system.cpu.dtb.flush_tlb_mva_asid                   0                       # Number of times TLB was flushed by MVA & ASID
system.cpu.dtb.hits                                 0                       # DTB hits
system.cpu.dtb.inst_accesses                        0                       # ITB inst accesses
system.cpu.dtb.inst_hits                            0                       # ITB inst hits
system.cpu.dtb.inst_misses                          0                       # ITB inst misses
system.cpu.dtb.misses                               0                       # DTB misses
system.cpu.dtb.perms_faults                         0                       # Number of TLB faults due to permissions restrictions
system.cpu.dtb.prefetch_faults                      0                       # Number of TLB faults due to prefetch
system.cpu.dtb.read_accesses                        0                       # DTB read accesses
system.cpu.dtb.read_hits                            0                       # DTB read hits
system.cpu.dtb.read_misses                          0                       # DTB read misses
system.cpu.dtb.stage2_mmu.stage2_tlb.accesses            0                       # DTB accesses
system.cpu.dtb.stage2_mmu.stage2_tlb.align_faults            0                       # Number of TLB faults due to alignment restrictions
system.cpu.dtb.stage2_mmu.stage2_tlb.domain_faults            0                       # Number of TLB faults due to domain restrictions
system.cpu.dtb.stage2_mmu.stage2_tlb.flush_entries            0                       # Number of entries that have been flushed from TLB
system.cpu.dtb.stage2_mmu.stage2_tlb.flush_tlb            0                       # Number of times complete TLB was flushed
system.cpu.dtb.stage2_mmu.stage2_tlb.flush_tlb_asid            0                       # Number of times TLB was flushed by ASID
system.cpu.dtb.stage2_mmu.stage2_tlb.flush_tlb_mva            0                       # Number of times TLB was flushed by MVA
system.cpu.dtb.stage2_mmu.stage2_tlb.flush_tlb_mva_asid            0                       # Number of times TLB was flushed by MVA & ASID
system.cpu.dtb.stage2_mmu.stage2_tlb.hits            0                       # DTB hits
system.cpu.dtb.stage2_mmu.stage2_tlb.inst_accesses            0                       # ITB inst accesses
system.cpu.dtb.stage2_mmu.stage2_tlb.inst_hits            0                       # ITB inst hits
system.cpu.dtb.stage2_mmu.stage2_tlb.inst_misses            0                       # ITB inst misses
system.cpu.dtb.stage2_mmu.stage2_tlb.misses            0                       # DTB misses
system.cpu.dtb.stage2_mmu.stage2_tlb.perms_faults            0                       # Number of TLB faults due to permissions restrictions
system.cpu.dtb.stage2_mmu.stage2_tlb.prefetch_faults            0                       # Number of TLB faults due to prefetch
system.cpu.dtb.stage2_mmu.stage2_tlb.read_accesses            0                       # DTB read accesses
system.cpu.dtb.stage2_mmu.stage2_tlb.read_hits            0                       # DTB read hits
system.cpu.dtb.stage2_mmu.stage2_tlb.read_misses            0                       # DTB read misses
system.cpu.dtb.stage2_mmu.stage2_tlb.walker.walkRequestOrigin_Requested::Data            0                       # Table walker requests started/completed, data/inst
system.cpu.dtb.stage2_mmu.stage2_tlb.walker.walkRequestOrigin_Requested::Inst            0                       # Table walker requests started/completed, data/inst
system.cpu.dtb.stage2_mmu.stage2_tlb.walker.walkRequestOrigin_Requested::total            0                       # Table walker requests started/completed, data/inst
system.cpu.dtb.stage2_mmu.stage2_tlb.walker.walkRequestOrigin_Completed::Data            0                       # Table walker requests started/completed, data/inst
system.cpu.dtb.stage2_mmu.stage2_tlb.walker.walkRequestOrigin_Completed::Inst            0                       # Table walker requests started/completed, data/inst
system.cpu.dtb.stage2_mmu.stage2_tlb.walker.walkRequestOrigin_Completed::total            0                       # Table walker requests started/completed, data/inst
system.cpu.dtb.stage2_mmu.stage2_tlb.walker.walkRequestOrigin::total            0                       # Table walker requests started/completed, data/inst
system.cpu.dtb.stage2_mmu.stage2_tlb.walker.walks            0                       # Table walker walks requested
system.cpu.dtb.stage2_mmu.stage2_tlb.write_accesses            0                       # DTB write accesses
system.cpu.dtb.stage2_mmu.stage2_tlb.write_hits            0                       # DTB write hits
system.cpu.dtb.stage2_mmu.stage2_tlb.write_misses            0                       # DTB write misses
system.cpu.dtb.walker.walkRequestOrigin_Requested::Data            0                       # Table walker requests started/completed, data/inst
system.cpu.dtb.walker.walkRequestOrigin_Requested::Inst            0                       # Table walker requests started/completed, data/inst
system.cpu.dtb.walker.walkRequestOrigin_Requested::total            0                       # Table walker requests started/completed, data/inst
system.cpu.dtb.walker.walkRequestOrigin_Completed::Data            0                       # Table walker requests started/completed, data/inst
system.cpu.dtb.walker.walkRequestOrigin_Completed::Inst            0                       # Table walker requests started/completed, data/inst
system.cpu.dtb.walker.walkRequestOrigin_Completed::total            0                       # Table walker requests started/completed, data/inst
system.cpu.dtb.walker.walkRequestOrigin::total            0                       # Table walker requests started/completed, data/inst
system.cpu.dtb.walker.walks                         0                       # Table walker walks requested
system.cpu.dtb.write_accesses                       0                       # DTB write accesses
system.cpu.dtb.write_hits                           0                       # DTB write hits
system.cpu.dtb.write_misses                         0                       # DTB write misses
system.cpu.fetch2.amo_instructions                  0                       # Number of memory atomic instructions successfully decoded
system.cpu.fetch2.fp_instructions                   0                       # Number of floating point instructions successfully decoded
system.cpu.fetch2.int_instructions            1672400                       # Number of integer instructions successfully decoded
system.cpu.fetch2.load_instructions           1002301                       # Number of memory load instructions successfully decoded
system.cpu.fetch2.store_instructions           175183                       # Number of memory store instructions successfully decoded
system.cpu.fetch2.vec_instructions                  0                       # Number of SIMD instructions successfully decoded
system.cpu.idleCycles                       166354578                       # Total number of cycles that the object has spent stopped
system.cpu.ipc                               0.019954                       # IPC: instructions per cycle
system.cpu.itb.accesses                             0                       # DTB accesses
system.cpu.itb.align_faults                         0                       # Number of TLB faults due to alignment restrictions
system.cpu.itb.domain_faults                        0                       # Number of TLB faults due to domain restrictions
system.cpu.itb.flush_entries                        0                       # Number of entries that have been flushed from TLB
system.cpu.itb.flush_tlb                            0                       # Number of times complete TLB was flushed
system.cpu.itb.flush_tlb_asid                       0                       # Number of times TLB was flushed by ASID
system.cpu.itb.flush_tlb_mva                        0                       # Number of times TLB was flushed by MVA
system.cpu.itb.flush_tlb_mva_asid                   0                       # Number of times TLB was flushed by MVA & ASID
system.cpu.itb.hits                                 0                       # DTB hits
system.cpu.itb.inst_accesses                        0                       # ITB inst accesses
system.cpu.itb.inst_hits                            0                       # ITB inst hits
system.cpu.itb.inst_misses                          0                       # ITB inst misses
system.cpu.itb.misses                               0                       # DTB misses
system.cpu.itb.perms_faults                         0                       # Number of TLB faults due to permissions restrictions
system.cpu.itb.prefetch_faults                      0                       # Number of TLB faults due to prefetch
system.cpu.itb.read_accesses                        0                       # DTB read accesses
system.cpu.itb.read_hits                            0                       # DTB read hits
system.cpu.itb.read_misses                          0                       # DTB read misses
system.cpu.itb.stage2_mmu.stage2_tlb.accesses            0                       # DTB accesses
system.cpu.itb.stage2_mmu.stage2_tlb.align_faults            0                       # Number of TLB faults due to alignment restrictions
system.cpu.itb.stage2_mmu.stage2_tlb.domain_faults            0                       # Number of TLB faults due to domain restrictions
system.cpu.itb.stage2_mmu.stage2_tlb.flush_entries            0                       # Number of entries that have been flushed from TLB
system.cpu.itb.stage2_mmu.stage2_tlb.flush_tlb            0                       # Number of times complete TLB was flushed
system.cpu.itb.stage2_mmu.stage2_tlb.flush_tlb_asid            0                       # Number of times TLB was flushed by ASID
system.cpu.itb.stage2_mmu.stage2_tlb.flush_tlb_mva            0                       # Number of times TLB was flushed by MVA
system.cpu.itb.stage2_mmu.stage2_tlb.flush_tlb_mva_asid            0                       # Number of times TLB was flushed by MVA & ASID
system.cpu.itb.stage2_mmu.stage2_tlb.hits            0                       # DTB hits
system.cpu.itb.stage2_mmu.stage2_tlb.inst_accesses            0                       # ITB inst accesses
system.cpu.itb.stage2_mmu.stage2_tlb.inst_hits            0                       # ITB inst hits
system.cpu.itb.stage2_mmu.stage2_tlb.inst_misses            0                       # ITB inst misses
system.cpu.itb.stage2_mmu.stage2_tlb.misses            0                       # DTB misses
system.cpu.itb.stage2_mmu.stage2_tlb.perms_faults            0                       # Number of TLB faults due to permissions restrictions
system.cpu.itb.stage2_mmu.stage2_tlb.prefetch_faults            0                       # Number of TLB faults due to prefetch
system.cpu.itb.stage2_mmu.stage2_tlb.read_accesses            0                       # DTB read accesses
system.cpu.itb.stage2_mmu.stage2_tlb.read_hits            0                       # DTB read hits
system.cpu.itb.stage2_mmu.stage2_tlb.read_misses            0                       # DTB read misses
system.cpu.itb.stage2_mmu.stage2_tlb.walker.walkRequestOrigin_Requested::Data            0                       # Table walker requests started/completed, data/inst
system.cpu.itb.stage2_mmu.stage2_tlb.walker.walkRequestOrigin_Requested::Inst            0                       # Table walker requests started/completed, data/inst
system.cpu.itb.stage2_mmu.stage2_tlb.walker.walkRequestOrigin_Requested::total            0                       # Table walker requests started/completed, data/inst
system.cpu.itb.stage2_mmu.stage2_tlb.walker.walkRequestOrigin_Completed::Data            0                       # Table walker requests started/completed, data/inst
system.cpu.itb.stage2_mmu.stage2_tlb.walker.walkRequestOrigin_Completed::Inst            0                       # Table walker requests started/completed, data/inst
system.cpu.itb.stage2_mmu.stage2_tlb.walker.walkRequestOrigin_Completed::total            0                       # Table walker requests started/completed, data/inst
system.cpu.itb.stage2_mmu.stage2_tlb.walker.walkRequestOrigin::total            0                       # Table walker requests started/completed, data/inst
system.cpu.itb.stage2_mmu.stage2_tlb.walker.walks            0                       # Table walker walks requested
system.cpu.itb.stage2_mmu.stage2_tlb.write_accesses            0                       # DTB write accesses
system.cpu.itb.stage2_mmu.stage2_tlb.write_hits            0                       # DTB write hits
system.cpu.itb.stage2_mmu.stage2_tlb.write_misses            0                       # DTB write misses
system.cpu.itb.walker.walkRequestOrigin_Requested::Data            0                       # Table walker requests started/completed, data/inst
system.cpu.itb.walker.walkRequestOrigin_Requested::Inst            0                       # Table walker requests started/completed, data/inst
system.cpu.itb.walker.walkRequestOrigin_Requested::total            0                       # Table walker requests started/completed, data/inst
system.cpu.itb.walker.walkRequestOrigin_Completed::Data            0                       # Table walker requests started/completed, data/inst
system.cpu.itb.walker.walkRequestOrigin_Completed::Inst            0                       # Table walker requests started/completed, data/inst
system.cpu.itb.walker.walkRequestOrigin_Completed::total            0                       # Table walker requests started/completed, data/inst
system.cpu.itb.walker.walkRequestOrigin::total            0                       # Table walker requests started/completed, data/inst
system.cpu.itb.walker.walks                         0                       # Table walker walks requested
system.cpu.itb.write_accesses                       0                       # DTB write accesses
system.cpu.itb.write_hits                           0                       # DTB write hits
system.cpu.itb.write_misses                         0                       # DTB write misses
system.cpu.kern.inst.arm                            0                       # number of arm instructions executed
system.cpu.kern.inst.quiesce                        0                       # number of quiesce instructions executed
system.cpu.numCycles                        176046423                       # number of cpu cycles simulated
system.cpu.numFetchSuspends                         0                       # Number of times Execute suspended instruction fetching
system.cpu.numWorkItemsCompleted                    0                       # number of work items this cpu completed
system.cpu.numWorkItemsStarted                      0                       # number of work items this cpu started
system.cpu.op_class_0::No_OpClass                   0      0.00%      0.00% # Class of committed instruction
system.cpu.op_class_0::IntAlu                 2391703     66.90%     66.90% # Class of committed instruction
system.cpu.op_class_0::IntMult                   2260      0.06%     66.96% # Class of committed instruction
system.cpu.op_class_0::IntDiv                       0      0.00%     66.96% # Class of committed instruction
system.cpu.op_class_0::FloatAdd                     0      0.00%     66.96% # Class of committed instruction
system.cpu.op_class_0::FloatCmp                     0      0.00%     66.96% # Class of committed instruction
system.cpu.op_class_0::FloatCvt                     0      0.00%     66.96% # Class of committed instruction
system.cpu.op_class_0::FloatMult                    0      0.00%     66.96% # Class of committed instruction
system.cpu.op_class_0::FloatMultAcc                 0      0.00%     66.96% # Class of committed instruction
system.cpu.op_class_0::FloatDiv                     0      0.00%     66.96% # Class of committed instruction
system.cpu.op_class_0::FloatMisc                    0      0.00%     66.96% # Class of committed instruction
system.cpu.op_class_0::FloatSqrt                    0      0.00%     66.96% # Class of committed instruction
system.cpu.op_class_0::SimdAdd                      0      0.00%     66.96% # Class of committed instruction
system.cpu.op_class_0::SimdAddAcc                   0      0.00%     66.96% # Class of committed instruction
system.cpu.op_class_0::SimdAlu                      0      0.00%     66.96% # Class of committed instruction
system.cpu.op_class_0::SimdCmp                      0      0.00%     66.96% # Class of committed instruction
system.cpu.op_class_0::SimdCvt                      0      0.00%     66.96% # Class of committed instruction
system.cpu.op_class_0::SimdMisc                     0      0.00%     66.96% # Class of committed instruction
system.cpu.op_class_0::SimdMult                     0      0.00%     66.96% # Class of committed instruction
system.cpu.op_class_0::SimdMultAcc                  0      0.00%     66.96% # Class of committed instruction
system.cpu.op_class_0::SimdShift                    0      0.00%     66.96% # Class of committed instruction
system.cpu.op_class_0::SimdShiftAcc                 0      0.00%     66.96% # Class of committed instruction
system.cpu.op_class_0::SimdDiv                      0      0.00%     66.96% # Class of committed instruction
system.cpu.op_class_0::SimdSqrt                     0      0.00%     66.96% # Class of committed instruction
system.cpu.op_class_0::SimdFloatAdd                 0      0.00%     66.96% # Class of committed instruction
system.cpu.op_class_0::SimdFloatAlu                 0      0.00%     66.96% # Class of committed instruction
system.cpu.op_class_0::SimdFloatCmp                 0      0.00%     66.96% # Class of committed instruction
system.cpu.op_class_0::SimdFloatCvt                 0      0.00%     66.96% # Class of committed instruction
system.cpu.op_class_0::SimdFloatDiv                 0      0.00%     66.96% # Class of committed instruction
system.cpu.op_class_0::SimdFloatMisc                0      0.00%     66.96% # Class of committed instruction
system.cpu.op_class_0::SimdFloatMult                0      0.00%     66.96% # Class of committed instruction
system.cpu.op_class_0::SimdFloatMultAcc             0      0.00%     66.96% # Class of committed instruction
system.cpu.op_class_0::SimdFloatSqrt                0      0.00%     66.96% # Class of committed instruction
system.cpu.op_class_0::SimdReduceAdd                0      0.00%     66.96% # Class of committed instruction
system.cpu.op_class_0::SimdReduceAlu                0      0.00%     66.96% # Class of committed instruction
system.cpu.op_class_0::SimdReduceCmp                0      0.00%     66.96% # Class of committed instruction
system.cpu.op_class_0::SimdFloatReduceAdd            0      0.00%     66.96% # Class of committed instruction
system.cpu.op_class_0::SimdFloatReduceCmp            0      0.00%     66.96% # Class of committed instruction
system.cpu.op_class_0::SimdAes                      0      0.00%     66.96% # Class of committed instruction
system.cpu.op_class_0::SimdAesMix                   0      0.00%     66.96% # Class of committed instruction
system.cpu.op_class_0::SimdSha1Hash                 0      0.00%     66.96% # Class of committed instruction
system.cpu.op_class_0::SimdSha1Hash2                0      0.00%     66.96% # Class of committed instruction
system.cpu.op_class_0::SimdSha256Hash               0      0.00%     66.96% # Class of committed instruction
system.cpu.op_class_0::SimdSha256Hash2              0      0.00%     66.96% # Class of committed instruction
system.cpu.op_class_0::SimdShaSigma2                0      0.00%     66.96% # Class of committed instruction
system.cpu.op_class_0::SimdShaSigma3                0      0.00%     66.96% # Class of committed instruction
system.cpu.op_class_0::SimdPredAlu                  0      0.00%     66.96% # Class of committed instruction
system.cpu.op_class_0::MemRead                 977718     27.35%     94.31% # Class of committed instruction
system.cpu.op_class_0::MemWrite                203472      5.69%    100.00% # Class of committed instruction
system.cpu.op_class_0::FloatMemRead                 0      0.00%    100.00% # Class of committed instruction
system.cpu.op_class_0::FloatMemWrite                0      0.00%    100.00% # Class of committed instruction
system.cpu.op_class_0::IprAccess                    0      0.00%    100.00% # Class of committed instruction
system.cpu.op_class_0::InstPrefetch                 0      0.00%    100.00% # Class of committed instruction
system.cpu.op_class_0::total                  3575153                       # Class of committed instruction
system.cpu.tickCycles                         9691845                       # Number of cycles that the object actually ticked
system.membus.snoop_filter.hit_multi_requests            0                       # Number of requests hitting in the snoop filter with multiple (>1) holders of the requested data.
system.membus.snoop_filter.hit_multi_snoops            0                       # Number of snoops hitting in the snoop filter with multiple (>1) holders of the requested data.
system.membus.snoop_filter.hit_single_requests            0                       # Number of requests hitting in the snoop filter with a single holder of the requested data.
system.membus.snoop_filter.hit_single_snoops            0                       # Number of snoops hitting in the snoop filter with a single holder of the requested data.
system.membus.snoop_filter.tot_requests             0                       # Total number of requests made to the snoop filter.
system.membus.snoop_filter.tot_snoops               0                       # Total number of snoops made to the snoop filter.
system.bridge.pwrStateResidencyTicks::UNDEFINED 680385331250                       # Cumulative time (in ticks) in various power states
system.voltage_domain.voltage                       1                       # Voltage in Volts
system.iocache.pwrStateResidencyTicks::UNDEFINED 680385331250                       # Cumulative time (in ticks) in various power states
system.iocache.blocked_cycles::no_mshrs             0                       # number of cycles access was blocked
system.iocache.blocked_cycles::no_targets            0                       # number of cycles access was blocked
system.iocache.blocked::no_mshrs                    0                       # number of cycles access was blocked
system.iocache.blocked::no_targets                  0                       # number of cycles access was blocked
system.iocache.avg_blocked_cycles::no_mshrs          nan                       # average number of cycles each access was blocked
system.iocache.avg_blocked_cycles::no_targets          nan                       # average number of cycles each access was blocked
system.iocache.replacements                         0                       # number of replacements
system.iocache.tags.pwrStateResidencyTicks::UNDEFINED 680385331250                       # Cumulative time (in ticks) in various power states
system.iocache.tags.tagsinuse                       0                       # Cycle average of tags in use
system.iocache.tags.total_refs                      0                       # Total number of references to valid blocks.
system.iocache.tags.sampled_refs                    0                       # Sample count of references to valid blocks.
system.iocache.tags.avg_refs                      nan                       # Average number of references to valid blocks.
system.iocache.tags.warmup_cycle                    0                       # Cycle when the warmup percentage was hit.
system.iocache.tags.tag_accesses                    0                       # Number of tag accesses
system.iocache.tags.data_accesses                   0                       # Number of data accesses
system.membus.pwrStateResidencyTicks::UNDEFINED 680385331250                       # Cumulative time (in ticks) in various power states
system.membus.trans_dist::ReadReq             6285954                       # Transaction distribution
system.membus.trans_dist::ReadResp            6285954                       # Transaction distribution
system.membus.trans_dist::WriteReq            2286123                       # Transaction distribution
system.membus.trans_dist::WriteResp           2286123                       # Transaction distribution
system.membus.pkt_count_system.cpu.icache.mem_side::system.realview.bootmem.port      3161270                       # Packet count per connected master and slave (bytes)
system.membus.pkt_count_system.cpu.icache.mem_side::total      3161270                       # Packet count per connected master and slave (bytes)
system.membus.pkt_count_system.cpu.dcache.mem_side::system.realview.bootmem.port        97776                       # Packet count per connected master and slave (bytes)
system.membus.pkt_count_system.cpu.dcache.mem_side::system.mem_ctrls.port       891750                       # Packet count per connected master and slave (bytes)
system.membus.pkt_count_system.cpu.dcache.mem_side::system.acctest.mem2cls.slave      1356206                       # Packet count per connected master and slave (bytes)
system.membus.pkt_count_system.cpu.dcache.mem_side::total      2345732                       # Packet count per connected master and slave (bytes)
system.membus.pkt_count_system.acctest.coherency_bus.master[0]::system.mem_ctrls.port     11637152                       # Packet count per connected master and slave (bytes)
system.membus.pkt_count_system.acctest.coherency_bus.master[0]::total     11637152                       # Packet count per connected master and slave (bytes)
system.membus.pkt_count::total               17144154                       # Packet count per connected master and slave (bytes)
system.membus.pkt_size_system.cpu.icache.mem_side::system.realview.bootmem.port    101160640                       # Cumulative packet size per connected master and slave (bytes)
system.membus.pkt_size_system.cpu.icache.mem_side::total    101160640                       # Cumulative packet size per connected master and slave (bytes)
system.membus.pkt_size_system.cpu.dcache.mem_side::system.realview.bootmem.port       195552                       # Cumulative packet size per connected master and slave (bytes)
system.membus.pkt_size_system.cpu.dcache.mem_side::system.mem_ctrls.port      1740530                       # Cumulative packet size per connected master and slave (bytes)
system.membus.pkt_size_system.cpu.dcache.mem_side::system.acctest.mem2cls.slave       678103                       # Cumulative packet size per connected master and slave (bytes)
system.membus.pkt_size_system.cpu.dcache.mem_side::total      2614185                       # Cumulative packet size per connected master and slave (bytes)
system.membus.pkt_size_system.acctest.coherency_bus.master[0]::system.mem_ctrls.port    194779056                       # Cumulative packet size per connected master and slave (bytes)
system.membus.pkt_size_system.acctest.coherency_bus.master[0]::total    194779056                       # Cumulative packet size per connected master and slave (bytes)
system.membus.pkt_size::total               298553881                       # Cumulative packet size per connected master and slave (bytes)
system.membus.snoops                                0                       # Total snoops (count)
system.membus.snoopTraffic                          0                       # Total snoop traffic (bytes)
system.membus.snoop_fanout::samples           9783963                       # Request fanout histogram
system.membus.snoop_fanout::mean                    0                       # Request fanout histogram
system.membus.snoop_fanout::stdev                   0                       # Request fanout histogram
system.membus.snoop_fanout::underflows              0      0.00%      0.00% # Request fanout histogram
system.membus.snoop_fanout::0                 9783963    100.00%    100.00% # Request fanout histogram
system.membus.snoop_fanout::1                       0      0.00%    100.00% # Request fanout histogram
system.membus.snoop_fanout::2                       0      0.00%    100.00% # Request fanout histogram
system.membus.snoop_fanout::3                       0      0.00%    100.00% # Request fanout histogram
system.membus.snoop_fanout::4                       0      0.00%    100.00% # Request fanout histogram
system.membus.snoop_fanout::overflows               0      0.00%    100.00% # Request fanout histogram
system.membus.snoop_fanout::min_value               0                       # Request fanout histogram
system.membus.snoop_fanout::max_value               0                       # Request fanout histogram
system.membus.snoop_fanout::total             9783963                       # Request fanout histogram
system.membus.reqLayer6.occupancy         13553143750                       # Layer occupancy (ticks)
system.membus.reqLayer6.utilization              12.3                       # Layer utilization (%)
system.membus.reqLayer7.occupancy          1072736750                       # Layer occupancy (ticks)
system.membus.reqLayer7.utilization               1.0                       # Layer utilization (%)
system.membus.reqLayer1.occupancy          2621475893                       # Layer occupancy (ticks)
system.membus.reqLayer1.utilization               2.4                       # Layer utilization (%)
system.membus.badaddr_responder.pwrStateResidencyTicks::UNDEFINED 680385331250                       # Cumulative time (in ticks) in various power states
system.membus.respLayer4.occupancy         2150308375                       # Layer occupancy (ticks)
system.membus.respLayer4.utilization              2.0                       # Layer utilization (%)
system.membus.respLayer7.occupancy        16330672625                       # Layer occupancy (ticks)
system.membus.respLayer7.utilization             14.8                       # Layer utilization (%)
system.membus.respLayer3.occupancy         7903175000                       # Layer occupancy (ticks)
system.membus.respLayer3.utilization              7.2                       # Layer utilization (%)
system.acctest.harris_non_max0_spm.pwrStateResidencyTicks::UNDEFINED 680385331250                       # Cumulative time (in ticks) in various power states
system.acctest.elem_matrix2_spm.pwrStateResidencyTicks::UNDEFINED 680385331250                       # Cumulative time (in ticks) in various power states
system.acctest.elem_matrix2_spm.bytes_read::.acctest.elem_matrix2.system.acctest.elem_matrix2     30998528                       # Number of bytes read from this memory
system.acctest.elem_matrix2_spm.bytes_read::.acctest.elem_matrix2_dma     16842752                       # Number of bytes read from this memory
system.acctest.elem_matrix2_spm.bytes_read::total     47841280                       # Number of bytes read from this memory
system.acctest.elem_matrix2_spm.bytes_written::.acctest.elem_matrix2.system.acctest.elem_matrix2     17563648                       # Number of bytes written to this memory
system.acctest.elem_matrix2_spm.bytes_written::.acctest.elem_matrix2_dma     30146560                       # Number of bytes written to this memory
system.acctest.elem_matrix2_spm.bytes_written::total     47710208                       # Number of bytes written to this memory
system.acctest.elem_matrix2_spm.num_reads::.acctest.elem_matrix2.system.acctest.elem_matrix2      7749632                       # Number of read requests responded to by this memory
system.acctest.elem_matrix2_spm.num_reads::.acctest.elem_matrix2_dma       526336                       # Number of read requests responded to by this memory
system.acctest.elem_matrix2_spm.num_reads::total      8275968                       # Number of read requests responded to by this memory
system.acctest.elem_matrix2_spm.num_writes::.acctest.elem_matrix2.system.acctest.elem_matrix2      4390912                       # Number of write requests responded to by this memory
system.acctest.elem_matrix2_spm.num_writes::.acctest.elem_matrix2_dma       942080                       # Number of write requests responded to by this memory
system.acctest.elem_matrix2_spm.num_writes::total      5332992                       # Number of write requests responded to by this memory
system.acctest.elem_matrix2_spm.bw_read::.acctest.elem_matrix2.system.acctest.elem_matrix2    281730489                       # Total read bandwidth from this memory (bytes/s)
system.acctest.elem_matrix2_spm.bw_read::.acctest.elem_matrix2_dma    153075551                       # Total read bandwidth from this memory (bytes/s)
system.acctest.elem_matrix2_spm.bw_read::total    434806040                       # Total read bandwidth from this memory (bytes/s)
system.acctest.elem_matrix2_spm.bw_write::.acctest.elem_matrix2.system.acctest.elem_matrix2    159627423                       # Write bandwidth from this memory (bytes/s)
system.acctest.elem_matrix2_spm.bw_write::.acctest.elem_matrix2_dma    273987368                       # Write bandwidth from this memory (bytes/s)
system.acctest.elem_matrix2_spm.bw_write::total    433614790                       # Write bandwidth from this memory (bytes/s)
system.acctest.elem_matrix2_spm.bw_total::.acctest.elem_matrix2.system.acctest.elem_matrix2    441357912                       # Total bandwidth to/from this memory (bytes/s)
system.acctest.elem_matrix2_spm.bw_total::.acctest.elem_matrix2_dma    427062919                       # Total bandwidth to/from this memory (bytes/s)
system.acctest.elem_matrix2_spm.bw_total::total    868420830                       # Total bandwidth to/from this memory (bytes/s)
system.acctest.elem_matrix3_spm.pwrStateResidencyTicks::UNDEFINED 680385331250                       # Cumulative time (in ticks) in various power states
system.acctest.elem_matrix3_spm.bytes_read::.acctest.elem_matrix3.system.acctest.elem_matrix3     30932992                       # Number of bytes read from this memory
system.acctest.elem_matrix3_spm.bytes_read::.acctest.elem_matrix3_dma     17039360                       # Number of bytes read from this memory
system.acctest.elem_matrix3_spm.bytes_read::total     47972352                       # Number of bytes read from this memory
system.acctest.elem_matrix3_spm.bytes_written::.acctest.elem_matrix3.system.acctest.elem_matrix3     17694720                       # Number of bytes written to this memory
system.acctest.elem_matrix3_spm.bytes_written::.acctest.elem_matrix3_dma     30015488                       # Number of bytes written to this memory
system.acctest.elem_matrix3_spm.bytes_written::total     47710208                       # Number of bytes written to this memory
system.acctest.elem_matrix3_spm.num_reads::.acctest.elem_matrix3.system.acctest.elem_matrix3      7733248                       # Number of read requests responded to by this memory
system.acctest.elem_matrix3_spm.num_reads::.acctest.elem_matrix3_dma       532480                       # Number of read requests responded to by this memory
system.acctest.elem_matrix3_spm.num_reads::total      8265728                       # Number of read requests responded to by this memory
system.acctest.elem_matrix3_spm.num_writes::.acctest.elem_matrix3.system.acctest.elem_matrix3      4423680                       # Number of write requests responded to by this memory
system.acctest.elem_matrix3_spm.num_writes::.acctest.elem_matrix3_dma       937984                       # Number of write requests responded to by this memory
system.acctest.elem_matrix3_spm.num_writes::total      5361664                       # Number of write requests responded to by this memory
system.acctest.elem_matrix3_spm.bw_read::.acctest.elem_matrix3.system.acctest.elem_matrix3    281134864                       # Total read bandwidth from this memory (bytes/s)
system.acctest.elem_matrix3_spm.bw_read::.acctest.elem_matrix3_dma    154862425                       # Total read bandwidth from this memory (bytes/s)
system.acctest.elem_matrix3_spm.bw_read::total    435997289                       # Total read bandwidth from this memory (bytes/s)
system.acctest.elem_matrix3_spm.bw_write::.acctest.elem_matrix3.system.acctest.elem_matrix3    160818672                       # Write bandwidth from this memory (bytes/s)
system.acctest.elem_matrix3_spm.bw_write::.acctest.elem_matrix3_dma    272796118                       # Write bandwidth from this memory (bytes/s)
system.acctest.elem_matrix3_spm.bw_write::total    433614790                       # Write bandwidth from this memory (bytes/s)
system.acctest.elem_matrix3_spm.bw_total::.acctest.elem_matrix3.system.acctest.elem_matrix3    441953536                       # Total bandwidth to/from this memory (bytes/s)
system.acctest.elem_matrix3_spm.bw_total::.acctest.elem_matrix3_dma    427658543                       # Total bandwidth to/from this memory (bytes/s)
system.acctest.elem_matrix3_spm.bw_total::total    869612080                       # Total bandwidth to/from this memory (bytes/s)
system.acctest.local_bus.pwrStateResidencyTicks::UNDEFINED 680385331250                       # Cumulative time (in ticks) in various power states
system.acctest.local_bus.trans_dist::ReadReq      2858065                       # Transaction distribution
system.acctest.local_bus.trans_dist::ReadResp      2858065                       # Transaction distribution
system.acctest.local_bus.trans_dist::WriteReq      4042090                       # Transaction distribution
system.acctest.local_bus.trans_dist::WriteResp      4042090                       # Transaction distribution
system.acctest.local_bus.pkt_count_system.acctest.mem2cls.master::system.acctest.canny_non_max0.pio        11074                       # Packet count per connected master and slave (bytes)
system.acctest.local_bus.pkt_count_system.acctest.mem2cls.master::system.acctest.convolution0.pio        13114                       # Packet count per connected master and slave (bytes)
system.acctest.local_bus.pkt_count_system.acctest.mem2cls.master::system.acctest.convolution0_dma.pio        13344                       # Packet count per connected master and slave (bytes)
system.acctest.local_bus.pkt_count_system.acctest.mem2cls.master::system.acctest.convolution1.pio        13074                       # Packet count per connected master and slave (bytes)
system.acctest.local_bus.pkt_count_system.acctest.mem2cls.master::system.acctest.convolution1_dma.pio        11962                       # Packet count per connected master and slave (bytes)
system.acctest.local_bus.pkt_count_system.acctest.mem2cls.master::system.acctest.edge_tracking0.pio        10994                       # Packet count per connected master and slave (bytes)
system.acctest.local_bus.pkt_count_system.acctest.mem2cls.master::system.acctest.elem_matrix0.pio        31640                       # Packet count per connected master and slave (bytes)
system.acctest.local_bus.pkt_count_system.acctest.mem2cls.master::system.acctest.elem_matrix0_dma.pio       289990                       # Packet count per connected master and slave (bytes)
system.acctest.local_bus.pkt_count_system.acctest.mem2cls.master::system.acctest.elem_matrix1.pio        31082                       # Packet count per connected master and slave (bytes)
system.acctest.local_bus.pkt_count_system.acctest.mem2cls.master::system.acctest.elem_matrix1_dma.pio       287780                       # Packet count per connected master and slave (bytes)
system.acctest.local_bus.pkt_count_system.acctest.mem2cls.master::system.acctest.elem_matrix2.pio        29710                       # Packet count per connected master and slave (bytes)
system.acctest.local_bus.pkt_count_system.acctest.mem2cls.master::system.acctest.elem_matrix2_dma.pio       277220                       # Packet count per connected master and slave (bytes)
system.acctest.local_bus.pkt_count_system.acctest.mem2cls.master::system.acctest.elem_matrix3.pio        29322                       # Packet count per connected master and slave (bytes)
system.acctest.local_bus.pkt_count_system.acctest.mem2cls.master::system.acctest.elem_matrix3_dma.pio       276770                       # Packet count per connected master and slave (bytes)
system.acctest.local_bus.pkt_count_system.acctest.mem2cls.master::system.acctest.grayscale0.pio         8946                       # Packet count per connected master and slave (bytes)
system.acctest.local_bus.pkt_count_system.acctest.mem2cls.master::system.acctest.grayscale0_dma.pio         1682                       # Packet count per connected master and slave (bytes)
system.acctest.local_bus.pkt_count_system.acctest.mem2cls.master::system.acctest.harris_non_max0.pio         8794                       # Packet count per connected master and slave (bytes)
system.acctest.local_bus.pkt_count_system.acctest.mem2cls.master::system.acctest.isp0.pio         9002                       # Packet count per connected master and slave (bytes)
system.acctest.local_bus.pkt_count_system.acctest.mem2cls.master::system.acctest.isp0_dma.pio          706                       # Packet count per connected master and slave (bytes)
system.acctest.local_bus.pkt_count_system.acctest.mem2cls.master::total      1356206                       # Packet count per connected master and slave (bytes)
system.acctest.local_bus.pkt_count_system.acctest.convolution0_dma.dma::system.acctest.convolution0_spm.port       118944                       # Packet count per connected master and slave (bytes)
system.acctest.local_bus.pkt_count_system.acctest.convolution0_dma.dma::system.acctest.grayscale0_spm.port         4096                       # Packet count per connected master and slave (bytes)
system.acctest.local_bus.pkt_count_system.acctest.convolution0_dma.dma::total       123040                       # Packet count per connected master and slave (bytes)
system.acctest.local_bus.pkt_count_system.acctest.convolution1_dma.dma::system.acctest.convolution1_spm.port       118944                       # Packet count per connected master and slave (bytes)
system.acctest.local_bus.pkt_count_system.acctest.convolution1_dma.dma::system.acctest.grayscale0_spm.port         8192                       # Packet count per connected master and slave (bytes)
system.acctest.local_bus.pkt_count_system.acctest.convolution1_dma.dma::total       127136                       # Packet count per connected master and slave (bytes)
system.acctest.local_bus.pkt_count_system.acctest.elem_matrix0_dma.dma::system.acctest.convolution0_spm.port        45056                       # Packet count per connected master and slave (bytes)
system.acctest.local_bus.pkt_count_system.acctest.elem_matrix0_dma.dma::system.acctest.elem_matrix0_spm.port      3088384                       # Packet count per connected master and slave (bytes)
system.acctest.local_bus.pkt_count_system.acctest.elem_matrix0_dma.dma::system.acctest.grayscale0_spm.port         4096                       # Packet count per connected master and slave (bytes)
system.acctest.local_bus.pkt_count_system.acctest.elem_matrix0_dma.dma::total      3137536                       # Packet count per connected master and slave (bytes)
system.acctest.local_bus.pkt_count_system.acctest.elem_matrix1_dma.dma::system.acctest.convolution1_spm.port        45056                       # Packet count per connected master and slave (bytes)
system.acctest.local_bus.pkt_count_system.acctest.elem_matrix1_dma.dma::system.acctest.elem_matrix1_spm.port      3076096                       # Packet count per connected master and slave (bytes)
system.acctest.local_bus.pkt_count_system.acctest.elem_matrix1_dma.dma::system.acctest.grayscale0_spm.port        12288                       # Packet count per connected master and slave (bytes)
system.acctest.local_bus.pkt_count_system.acctest.elem_matrix1_dma.dma::total      3133440                       # Packet count per connected master and slave (bytes)
system.acctest.local_bus.pkt_count_system.acctest.elem_matrix2_dma.dma::system.acctest.elem_matrix2_spm.port      2936832                       # Packet count per connected master and slave (bytes)
system.acctest.local_bus.pkt_count_system.acctest.elem_matrix2_dma.dma::total      2936832                       # Packet count per connected master and slave (bytes)
system.acctest.local_bus.pkt_count_system.acctest.elem_matrix3_dma.dma::system.acctest.elem_matrix3_spm.port      2940928                       # Packet count per connected master and slave (bytes)
system.acctest.local_bus.pkt_count_system.acctest.elem_matrix3_dma.dma::system.acctest.grayscale0_spm.port         4096                       # Packet count per connected master and slave (bytes)
system.acctest.local_bus.pkt_count_system.acctest.elem_matrix3_dma.dma::total      2945024                       # Packet count per connected master and slave (bytes)
system.acctest.local_bus.pkt_count_system.acctest.grayscale0_dma.dma::system.acctest.grayscale0_spm.port        24576                       # Packet count per connected master and slave (bytes)
system.acctest.local_bus.pkt_count_system.acctest.grayscale0_dma.dma::system.acctest.isp0_spm.port        12288                       # Packet count per connected master and slave (bytes)
system.acctest.local_bus.pkt_count_system.acctest.grayscale0_dma.dma::total        36864                       # Packet count per connected master and slave (bytes)
system.acctest.local_bus.pkt_count_system.acctest.isp0_dma.dma::system.acctest.isp0_spm.port         4232                       # Packet count per connected master and slave (bytes)
system.acctest.local_bus.pkt_count_system.acctest.isp0_dma.dma::total         4232                       # Packet count per connected master and slave (bytes)
system.acctest.local_bus.pkt_count::total     13800310                       # Packet count per connected master and slave (bytes)
system.acctest.local_bus.pkt_size_system.acctest.mem2cls.master::system.acctest.canny_non_max0.pio         5537                       # Cumulative packet size per connected master and slave (bytes)
system.acctest.local_bus.pkt_size_system.acctest.mem2cls.master::system.acctest.convolution0.pio         6557                       # Cumulative packet size per connected master and slave (bytes)
system.acctest.local_bus.pkt_size_system.acctest.mem2cls.master::system.acctest.convolution0_dma.pio         6672                       # Cumulative packet size per connected master and slave (bytes)
system.acctest.local_bus.pkt_size_system.acctest.mem2cls.master::system.acctest.convolution1.pio         6537                       # Cumulative packet size per connected master and slave (bytes)
system.acctest.local_bus.pkt_size_system.acctest.mem2cls.master::system.acctest.convolution1_dma.pio         5981                       # Cumulative packet size per connected master and slave (bytes)
system.acctest.local_bus.pkt_size_system.acctest.mem2cls.master::system.acctest.edge_tracking0.pio         5497                       # Cumulative packet size per connected master and slave (bytes)
system.acctest.local_bus.pkt_size_system.acctest.mem2cls.master::system.acctest.elem_matrix0.pio        15820                       # Cumulative packet size per connected master and slave (bytes)
system.acctest.local_bus.pkt_size_system.acctest.mem2cls.master::system.acctest.elem_matrix0_dma.pio       144995                       # Cumulative packet size per connected master and slave (bytes)
system.acctest.local_bus.pkt_size_system.acctest.mem2cls.master::system.acctest.elem_matrix1.pio        15541                       # Cumulative packet size per connected master and slave (bytes)
system.acctest.local_bus.pkt_size_system.acctest.mem2cls.master::system.acctest.elem_matrix1_dma.pio       143890                       # Cumulative packet size per connected master and slave (bytes)
system.acctest.local_bus.pkt_size_system.acctest.mem2cls.master::system.acctest.elem_matrix2.pio        14855                       # Cumulative packet size per connected master and slave (bytes)
system.acctest.local_bus.pkt_size_system.acctest.mem2cls.master::system.acctest.elem_matrix2_dma.pio       138610                       # Cumulative packet size per connected master and slave (bytes)
system.acctest.local_bus.pkt_size_system.acctest.mem2cls.master::system.acctest.elem_matrix3.pio        14661                       # Cumulative packet size per connected master and slave (bytes)
system.acctest.local_bus.pkt_size_system.acctest.mem2cls.master::system.acctest.elem_matrix3_dma.pio       138385                       # Cumulative packet size per connected master and slave (bytes)
system.acctest.local_bus.pkt_size_system.acctest.mem2cls.master::system.acctest.grayscale0.pio         4473                       # Cumulative packet size per connected master and slave (bytes)
system.acctest.local_bus.pkt_size_system.acctest.mem2cls.master::system.acctest.grayscale0_dma.pio          841                       # Cumulative packet size per connected master and slave (bytes)
system.acctest.local_bus.pkt_size_system.acctest.mem2cls.master::system.acctest.harris_non_max0.pio         4397                       # Cumulative packet size per connected master and slave (bytes)
system.acctest.local_bus.pkt_size_system.acctest.mem2cls.master::system.acctest.isp0.pio         4501                       # Cumulative packet size per connected master and slave (bytes)
system.acctest.local_bus.pkt_size_system.acctest.mem2cls.master::system.acctest.isp0_dma.pio          353                       # Cumulative packet size per connected master and slave (bytes)
system.acctest.local_bus.pkt_size_system.acctest.mem2cls.master::total       678103                       # Cumulative packet size per connected master and slave (bytes)
system.acctest.local_bus.pkt_size_system.acctest.convolution0_dma.dma::system.acctest.convolution0_spm.port      1902544                       # Cumulative packet size per connected master and slave (bytes)
system.acctest.local_bus.pkt_size_system.acctest.convolution0_dma.dma::system.acctest.grayscale0_spm.port        65536                       # Cumulative packet size per connected master and slave (bytes)
system.acctest.local_bus.pkt_size_system.acctest.convolution0_dma.dma::total      1968080                       # Cumulative packet size per connected master and slave (bytes)
system.acctest.local_bus.pkt_size_system.acctest.convolution1_dma.dma::system.acctest.convolution1_spm.port      1902544                       # Cumulative packet size per connected master and slave (bytes)
system.acctest.local_bus.pkt_size_system.acctest.convolution1_dma.dma::system.acctest.grayscale0_spm.port       131072                       # Cumulative packet size per connected master and slave (bytes)
system.acctest.local_bus.pkt_size_system.acctest.convolution1_dma.dma::total      2033616                       # Cumulative packet size per connected master and slave (bytes)
system.acctest.local_bus.pkt_size_system.acctest.elem_matrix0_dma.dma::system.acctest.convolution0_spm.port       720896                       # Cumulative packet size per connected master and slave (bytes)
system.acctest.local_bus.pkt_size_system.acctest.elem_matrix0_dma.dma::system.acctest.elem_matrix0_spm.port     49414144                       # Cumulative packet size per connected master and slave (bytes)
system.acctest.local_bus.pkt_size_system.acctest.elem_matrix0_dma.dma::system.acctest.grayscale0_spm.port        65536                       # Cumulative packet size per connected master and slave (bytes)
system.acctest.local_bus.pkt_size_system.acctest.elem_matrix0_dma.dma::total     50200576                       # Cumulative packet size per connected master and slave (bytes)
system.acctest.local_bus.pkt_size_system.acctest.elem_matrix1_dma.dma::system.acctest.convolution1_spm.port       720896                       # Cumulative packet size per connected master and slave (bytes)
system.acctest.local_bus.pkt_size_system.acctest.elem_matrix1_dma.dma::system.acctest.elem_matrix1_spm.port     49217536                       # Cumulative packet size per connected master and slave (bytes)
system.acctest.local_bus.pkt_size_system.acctest.elem_matrix1_dma.dma::system.acctest.grayscale0_spm.port       196608                       # Cumulative packet size per connected master and slave (bytes)
system.acctest.local_bus.pkt_size_system.acctest.elem_matrix1_dma.dma::total     50135040                       # Cumulative packet size per connected master and slave (bytes)
system.acctest.local_bus.pkt_size_system.acctest.elem_matrix2_dma.dma::system.acctest.elem_matrix2_spm.port     46989312                       # Cumulative packet size per connected master and slave (bytes)
system.acctest.local_bus.pkt_size_system.acctest.elem_matrix2_dma.dma::total     46989312                       # Cumulative packet size per connected master and slave (bytes)
system.acctest.local_bus.pkt_size_system.acctest.elem_matrix3_dma.dma::system.acctest.elem_matrix3_spm.port     47054848                       # Cumulative packet size per connected master and slave (bytes)
system.acctest.local_bus.pkt_size_system.acctest.elem_matrix3_dma.dma::system.acctest.grayscale0_spm.port        65536                       # Cumulative packet size per connected master and slave (bytes)
system.acctest.local_bus.pkt_size_system.acctest.elem_matrix3_dma.dma::total     47120384                       # Cumulative packet size per connected master and slave (bytes)
system.acctest.local_bus.pkt_size_system.acctest.grayscale0_dma.dma::system.acctest.grayscale0_spm.port       393216                       # Cumulative packet size per connected master and slave (bytes)
system.acctest.local_bus.pkt_size_system.acctest.grayscale0_dma.dma::system.acctest.isp0_spm.port       196608                       # Cumulative packet size per connected master and slave (bytes)
system.acctest.local_bus.pkt_size_system.acctest.grayscale0_dma.dma::total       589824                       # Cumulative packet size per connected master and slave (bytes)
system.acctest.local_bus.pkt_size_system.acctest.isp0_dma.dma::system.acctest.isp0_spm.port        67600                       # Cumulative packet size per connected master and slave (bytes)
system.acctest.local_bus.pkt_size_system.acctest.isp0_dma.dma::total        67600                       # Cumulative packet size per connected master and slave (bytes)
system.acctest.local_bus.pkt_size::total    199782535                       # Cumulative packet size per connected master and slave (bytes)
system.acctest.local_bus.respLayer18.occupancy     46080000                       # Layer occupancy (ticks)
system.acctest.local_bus.respLayer18.utilization          0.0                       # Layer utilization (%)
system.acctest.local_bus.respLayer10.occupancy   2719744000                       # Layer occupancy (ticks)
system.acctest.local_bus.respLayer10.utilization          2.5                       # Layer utilization (%)
system.acctest.local_bus.respLayer12.occupancy   2725888000                       # Layer occupancy (ticks)
system.acctest.local_bus.respLayer12.utilization          2.5                       # Layer utilization (%)
system.acctest.local_bus.respLayer14.occupancy   2521088000                       # Layer occupancy (ticks)
system.acctest.local_bus.respLayer14.utilization          2.3                       # Layer utilization (%)
system.acctest.local_bus.respLayer16.occupancy   2541568000                       # Layer occupancy (ticks)
system.acctest.local_bus.respLayer16.utilization          2.3                       # Layer utilization (%)
system.acctest.local_bus.reqLayer4.occupancy    212589007                       # Layer occupancy (ticks)
system.acctest.local_bus.reqLayer4.utilization          0.2                       # Layer utilization (%)
system.acctest.local_bus.reqLayer5.occupancy     10408750                       # Layer occupancy (ticks)
system.acctest.local_bus.reqLayer5.utilization          0.0                       # Layer utilization (%)
system.acctest.local_bus.reqLayer6.occupancy     10201125                       # Layer occupancy (ticks)
system.acctest.local_bus.reqLayer6.utilization          0.0                       # Layer utilization (%)
system.acctest.local_bus.reqLayer7.occupancy    213479458                       # Layer occupancy (ticks)
system.acctest.local_bus.reqLayer7.utilization          0.2                       # Layer utilization (%)
system.acctest.local_bus.reqLayer0.occupancy      8542750                       # Layer occupancy (ticks)
system.acctest.local_bus.reqLayer0.utilization          0.0                       # Layer utilization (%)
system.acctest.local_bus.reqLayer3.occupancy     10616000                       # Layer occupancy (ticks)
system.acctest.local_bus.reqLayer3.utilization          0.0                       # Layer utilization (%)
system.acctest.local_bus.reqLayer8.occupancy      9492500                       # Layer occupancy (ticks)
system.acctest.local_bus.reqLayer8.utilization          0.0                       # Layer utilization (%)
system.acctest.local_bus.reqLayer9.occupancy      9940875                       # Layer occupancy (ticks)
system.acctest.local_bus.reqLayer9.utilization          0.0                       # Layer utilization (%)
system.acctest.local_bus.reqLayer30.occupancy      7953000                       # Layer occupancy (ticks)
system.acctest.local_bus.reqLayer30.utilization          0.0                       # Layer utilization (%)
system.acctest.local_bus.reqLayer31.occupancy     17781840                       # Layer occupancy (ticks)
system.acctest.local_bus.reqLayer31.utilization          0.0                       # Layer utilization (%)
system.acctest.local_bus.reqLayer32.occupancy       600125                       # Layer occupancy (ticks)
system.acctest.local_bus.reqLayer32.utilization          0.0                       # Layer utilization (%)
system.acctest.local_bus.reqLayer18.occupancy     28718000                       # Layer occupancy (ticks)
system.acctest.local_bus.reqLayer18.utilization          0.0                       # Layer utilization (%)
system.acctest.local_bus.reqLayer19.occupancy   3934459267                       # Layer occupancy (ticks)
system.acctest.local_bus.reqLayer19.utilization          3.6                       # Layer utilization (%)
system.acctest.local_bus.reqLayer16.occupancy   4108711064                       # Layer occupancy (ticks)
system.acctest.local_bus.reqLayer16.utilization          3.7                       # Layer utilization (%)
system.acctest.local_bus.reqLayer17.occupancy    215272875                       # Layer occupancy (ticks)
system.acctest.local_bus.reqLayer17.utilization          0.2                       # Layer utilization (%)
system.acctest.local_bus.reqLayer14.occupancy    216892500                       # Layer occupancy (ticks)
system.acctest.local_bus.reqLayer14.utilization          0.2                       # Layer utilization (%)
system.acctest.local_bus.reqLayer15.occupancy     29610875                       # Layer occupancy (ticks)
system.acctest.local_bus.reqLayer15.utilization          0.0                       # Layer utilization (%)
system.acctest.local_bus.reqLayer12.occupancy     30614750                       # Layer occupancy (ticks)
system.acctest.local_bus.reqLayer12.utilization          0.0                       # Layer utilization (%)
system.acctest.local_bus.reqLayer13.occupancy   4127405064                       # Layer occupancy (ticks)
system.acctest.local_bus.reqLayer13.utilization          3.8                       # Layer utilization (%)
system.acctest.local_bus.respLayer22.occupancy      2116000                       # Layer occupancy (ticks)
system.acctest.local_bus.respLayer22.utilization          0.0                       # Layer utilization (%)
system.acctest.local_bus.respLayer4.occupancy    102480000                       # Layer occupancy (ticks)
system.acctest.local_bus.respLayer4.utilization          0.1                       # Layer utilization (%)
system.acctest.local_bus.respLayer6.occupancy    108624000                       # Layer occupancy (ticks)
system.acctest.local_bus.respLayer6.utilization          0.1                       # Layer utilization (%)
system.acctest.local_bus.respLayer0.occupancy   1264936000                       # Layer occupancy (ticks)
system.acctest.local_bus.respLayer0.utilization          1.1                       # Layer utilization (%)
system.acctest.local_bus.reqLayer27.occupancy      7652250                       # Layer occupancy (ticks)
system.acctest.local_bus.reqLayer27.utilization          0.0                       # Layer utilization (%)
system.acctest.local_bus.reqLayer26.occupancy      1317125                       # Layer occupancy (ticks)
system.acctest.local_bus.reqLayer26.utilization          0.0                       # Layer utilization (%)
system.acctest.local_bus.reqLayer25.occupancy     62548169                       # Layer occupancy (ticks)
system.acctest.local_bus.reqLayer25.utilization          0.1                       # Layer utilization (%)
system.acctest.local_bus.reqLayer24.occupancy      7919375                       # Layer occupancy (ticks)
system.acctest.local_bus.reqLayer24.utilization          0.0                       # Layer utilization (%)
system.acctest.local_bus.reqLayer23.occupancy    206919000                       # Layer occupancy (ticks)
system.acctest.local_bus.reqLayer23.utilization          0.2                       # Layer utilization (%)
system.acctest.local_bus.reqLayer22.occupancy   3930914810                       # Layer occupancy (ticks)
system.acctest.local_bus.reqLayer22.utilization          3.6                       # Layer utilization (%)
system.acctest.local_bus.reqLayer21.occupancy     28488375                       # Layer occupancy (ticks)
system.acctest.local_bus.reqLayer21.utilization          0.0                       # Layer utilization (%)
system.acctest.local_bus.reqLayer20.occupancy    207155000                       # Layer occupancy (ticks)
system.acctest.local_bus.reqLayer20.utilization          0.2                       # Layer utilization (%)
system.acctest.isp0.pwrStateResidencyTicks::UNDEFINED 680385331250                       # Cumulative time (in ticks) in various power states
system.acctest.edge_tracking0.pwrStateResidencyTicks::UNDEFINED 680385331250                       # Cumulative time (in ticks) in various power states
system.acctest.grayscale0_spm.pwrStateResidencyTicks::UNDEFINED 680385331250                       # Cumulative time (in ticks) in various power states
system.acctest.grayscale0_spm.bytes_read::.acctest.convolution0_dma        65536                       # Number of bytes read from this memory
system.acctest.grayscale0_spm.bytes_read::.acctest.convolution1_dma       131072                       # Number of bytes read from this memory
system.acctest.grayscale0_spm.bytes_read::.acctest.elem_matrix0_dma        65536                       # Number of bytes read from this memory
system.acctest.grayscale0_spm.bytes_read::.acctest.elem_matrix1_dma       196608                       # Number of bytes read from this memory
system.acctest.grayscale0_spm.bytes_read::.acctest.elem_matrix3_dma        65536                       # Number of bytes read from this memory
system.acctest.grayscale0_spm.bytes_read::.acctest.grayscale0.system.acctest.grayscale0       196608                       # Number of bytes read from this memory
system.acctest.grayscale0_spm.bytes_read::.acctest.grayscale0_dma       196608                       # Number of bytes read from this memory
system.acctest.grayscale0_spm.bytes_read::total       917504                       # Number of bytes read from this memory
system.acctest.grayscale0_spm.bytes_written::.acctest.grayscale0.system.acctest.grayscale0       262144                       # Number of bytes written to this memory
system.acctest.grayscale0_spm.bytes_written::.acctest.grayscale0_dma       196608                       # Number of bytes written to this memory
system.acctest.grayscale0_spm.bytes_written::total       458752                       # Number of bytes written to this memory
system.acctest.grayscale0_spm.num_reads::.acctest.convolution0_dma         2048                       # Number of read requests responded to by this memory
system.acctest.grayscale0_spm.num_reads::.acctest.convolution1_dma         4096                       # Number of read requests responded to by this memory
system.acctest.grayscale0_spm.num_reads::.acctest.elem_matrix0_dma         2048                       # Number of read requests responded to by this memory
system.acctest.grayscale0_spm.num_reads::.acctest.elem_matrix1_dma         6144                       # Number of read requests responded to by this memory
system.acctest.grayscale0_spm.num_reads::.acctest.elem_matrix3_dma         2048                       # Number of read requests responded to by this memory
system.acctest.grayscale0_spm.num_reads::.acctest.grayscale0.system.acctest.grayscale0       196608                       # Number of read requests responded to by this memory
system.acctest.grayscale0_spm.num_reads::.acctest.grayscale0_dma         6144                       # Number of read requests responded to by this memory
system.acctest.grayscale0_spm.num_reads::total       219136                       # Number of read requests responded to by this memory
system.acctest.grayscale0_spm.num_writes::.acctest.grayscale0.system.acctest.grayscale0        65536                       # Number of write requests responded to by this memory
system.acctest.grayscale0_spm.num_writes::.acctest.grayscale0_dma         6144                       # Number of write requests responded to by this memory
system.acctest.grayscale0_spm.num_writes::total        71680                       # Number of write requests responded to by this memory
system.acctest.grayscale0_spm.bw_read::.acctest.convolution0_dma       595625                       # Total read bandwidth from this memory (bytes/s)
system.acctest.grayscale0_spm.bw_read::.acctest.convolution1_dma      1191249                       # Total read bandwidth from this memory (bytes/s)
system.acctest.grayscale0_spm.bw_read::.acctest.elem_matrix0_dma       595625                       # Total read bandwidth from this memory (bytes/s)
system.acctest.grayscale0_spm.bw_read::.acctest.elem_matrix1_dma      1786874                       # Total read bandwidth from this memory (bytes/s)
system.acctest.grayscale0_spm.bw_read::.acctest.elem_matrix3_dma       595625                       # Total read bandwidth from this memory (bytes/s)
system.acctest.grayscale0_spm.bw_read::.acctest.grayscale0.system.acctest.grayscale0      1786874                       # Total read bandwidth from this memory (bytes/s)
system.acctest.grayscale0_spm.bw_read::.acctest.grayscale0_dma      1786874                       # Total read bandwidth from this memory (bytes/s)
system.acctest.grayscale0_spm.bw_read::total      8338746                       # Total read bandwidth from this memory (bytes/s)
system.acctest.grayscale0_spm.bw_write::.acctest.grayscale0.system.acctest.grayscale0      2382499                       # Write bandwidth from this memory (bytes/s)
system.acctest.grayscale0_spm.bw_write::.acctest.grayscale0_dma      1786874                       # Write bandwidth from this memory (bytes/s)
system.acctest.grayscale0_spm.bw_write::total      4169373                       # Write bandwidth from this memory (bytes/s)
system.acctest.grayscale0_spm.bw_total::.acctest.convolution0_dma       595625                       # Total bandwidth to/from this memory (bytes/s)
system.acctest.grayscale0_spm.bw_total::.acctest.convolution1_dma      1191249                       # Total bandwidth to/from this memory (bytes/s)
system.acctest.grayscale0_spm.bw_total::.acctest.elem_matrix0_dma       595625                       # Total bandwidth to/from this memory (bytes/s)
system.acctest.grayscale0_spm.bw_total::.acctest.elem_matrix1_dma      1786874                       # Total bandwidth to/from this memory (bytes/s)
system.acctest.grayscale0_spm.bw_total::.acctest.elem_matrix3_dma       595625                       # Total bandwidth to/from this memory (bytes/s)
system.acctest.grayscale0_spm.bw_total::.acctest.grayscale0.system.acctest.grayscale0      4169373                       # Total bandwidth to/from this memory (bytes/s)
system.acctest.grayscale0_spm.bw_total::.acctest.grayscale0_dma      3573748                       # Total bandwidth to/from this memory (bytes/s)
system.acctest.grayscale0_spm.bw_total::total     12508119                       # Total bandwidth to/from this memory (bytes/s)
system.acctest.elem_matrix1_dma.pwrStateResidencyTicks::UNDEFINED 680385331250                       # Cumulative time (in ticks) in various power states
system.acctest.mem2cls.pwrStateResidencyTicks::UNDEFINED 680385331250                       # Cumulative time (in ticks) in various power states
system.acctest.isp0_dma.pwrStateResidencyTicks::UNDEFINED 680385331250                       # Cumulative time (in ticks) in various power states
system.acctest.grayscale0_dma.pwrStateResidencyTicks::UNDEFINED 680385331250                       # Cumulative time (in ticks) in various power states
system.acctest.convolution0.pwrStateResidencyTicks::UNDEFINED 680385331250                       # Cumulative time (in ticks) in various power states
system.acctest.convolution1.pwrStateResidencyTicks::UNDEFINED 680385331250                       # Cumulative time (in ticks) in various power states
system.acctest.isp0_spm.pwrStateResidencyTicks::UNDEFINED 680385331250                       # Cumulative time (in ticks) in various power states
system.acctest.isp0_spm.bytes_read::.acctest.grayscale0_dma       196608                       # Number of bytes read from this memory
system.acctest.isp0_spm.bytes_read::.acctest.isp0.system.acctest.isp0       458752                       # Number of bytes read from this memory
system.acctest.isp0_spm.bytes_read::total       655360                       # Number of bytes read from this memory
system.acctest.isp0_spm.bytes_written::.acctest.isp0.system.acctest.isp0       196608                       # Number of bytes written to this memory
system.acctest.isp0_spm.bytes_written::.acctest.isp0_dma        67600                       # Number of bytes written to this memory
system.acctest.isp0_spm.bytes_written::total       264208                       # Number of bytes written to this memory
system.acctest.isp0_spm.num_reads::.acctest.grayscale0_dma         6144                       # Number of read requests responded to by this memory
system.acctest.isp0_spm.num_reads::.acctest.isp0.system.acctest.isp0       458752                       # Number of read requests responded to by this memory
system.acctest.isp0_spm.num_reads::total       464896                       # Number of read requests responded to by this memory
system.acctest.isp0_spm.num_writes::.acctest.isp0.system.acctest.isp0       196608                       # Number of write requests responded to by this memory
system.acctest.isp0_spm.num_writes::.acctest.isp0_dma         2116                       # Number of write requests responded to by this memory
system.acctest.isp0_spm.num_writes::total       198724                       # Number of write requests responded to by this memory
system.acctest.isp0_spm.bw_read::.acctest.grayscale0_dma      1786874                       # Total read bandwidth from this memory (bytes/s)
system.acctest.isp0_spm.bw_read::.acctest.isp0.system.acctest.isp0      4169373                       # Total read bandwidth from this memory (bytes/s)
system.acctest.isp0_spm.bw_read::total        5956247                       # Total read bandwidth from this memory (bytes/s)
system.acctest.isp0_spm.bw_write::.acctest.isp0.system.acctest.isp0      1786874                       # Write bandwidth from this memory (bytes/s)
system.acctest.isp0_spm.bw_write::.acctest.isp0_dma       614383                       # Write bandwidth from this memory (bytes/s)
system.acctest.isp0_spm.bw_write::total       2401258                       # Write bandwidth from this memory (bytes/s)
system.acctest.isp0_spm.bw_total::.acctest.grayscale0_dma      1786874                       # Total bandwidth to/from this memory (bytes/s)
system.acctest.isp0_spm.bw_total::.acctest.isp0.system.acctest.isp0      5956247                       # Total bandwidth to/from this memory (bytes/s)
system.acctest.isp0_spm.bw_total::.acctest.isp0_dma       614383                       # Total bandwidth to/from this memory (bytes/s)
system.acctest.isp0_spm.bw_total::total       8357505                       # Total bandwidth to/from this memory (bytes/s)
system.acctest.coherency_bus.pwrStateResidencyTicks::UNDEFINED 680385331250                       # Cumulative time (in ticks) in various power states
system.acctest.coherency_bus.trans_dist::ReadReq      3731664                       # Transaction distribution
system.acctest.coherency_bus.trans_dist::ReadResp      3731664                       # Transaction distribution
system.acctest.coherency_bus.trans_dist::WriteReq      2086912                       # Transaction distribution
system.acctest.coherency_bus.trans_dist::WriteResp      2086912                       # Transaction distribution
system.acctest.coherency_bus.pkt_count_system.acctest.convolution0_dma.dma::system.membus.slave[7]       114828                       # Packet count per connected master and slave (bytes)
[...]
system.mem_ctrls.masterReadRate::.acctest.convolution0_dma 11302415.480055805296                       # Per-master bytes read from memory rate (Bytes/sec)
system.mem_ctrls.masterReadRate::.acctest.convolution1_dma 10708102.555424245074                       # Per-master bytes read from memory rate (Bytes/sec)
system.mem_ctrls.masterReadRate::.acctest.elem_matrix0_dma 281537498.405826389790                       # Per-master bytes read from memory rate (Bytes/sec)
system.mem_ctrls.masterReadRate::.acctest.elem_matrix1_dma 278571532.277309715748                       # Per-master bytes read from memory rate (Bytes/sec)
system.mem_ctrls.masterReadRate::.acctest.elem_matrix2_dma 273849311.109097003937                       # Per-master bytes read from memory rate (Bytes/sec)
system.mem_ctrls.masterReadRate::.acctest.elem_matrix3_dma 272195319.481254935265                       # Per-master bytes read from memory rate (Bytes/sec)
system.mem_ctrls.masterReadRate::.acctest.isp0_dma 614380.256072509219                       # Per-master bytes read from memory rate (Bytes/sec)
system.mem_ctrls.masterReadRate::.cpu.data 11728237.345999078825                       # Per-master bytes read from memory rate (Bytes/sec)
system.mem_ctrls.masterWriteRate::.acctest.convolution0_dma 3947374.968335218728                       # Per-master bytes write to memory rate (Bytes/sec)
system.mem_ctrls.masterWriteRate::.acctest.convolution1_dma 4616794.970425111242                       # Per-master bytes write to memory rate (Bytes/sec)
system.mem_ctrls.masterWriteRate::.acctest.elem_matrix0_dma 128793987.234932348132                       # Per-master bytes write to memory rate (Bytes/sec)
system.mem_ctrls.masterWriteRate::.acctest.elem_matrix1_dma 129282437.715440645814                       # Per-master bytes write to memory rate (Bytes/sec)
system.mem_ctrls.masterWriteRate::.acctest.elem_matrix2_dma 123632320.591251924634                       # Per-master bytes write to memory rate (Bytes/sec)
system.mem_ctrls.masterWriteRate::.acctest.elem_matrix3_dma 124516228.375047609210                       # Per-master bytes write to memory rate (Bytes/sec)
system.mem_ctrls.masterWriteRate::.acctest.grayscale0_dma 1414964.989754686598                       # Per-master bytes write to memory rate (Bytes/sec)
system.mem_ctrls.masterWriteRate::.cpu.data 466810.844565862266                       # Per-master bytes write to memory rate (Bytes/sec)
system.mem_ctrls.masterReadAccesses::.acctest.convolution0_dma        58468                       # Per-master read serviced memory accesses
system.mem_ctrls.masterReadAccesses::.acctest.convolution1_dma        46180                       # Per-master read serviced memory accesses
system.mem_ctrls.masterReadAccesses::.acctest.elem_matrix0_dma      1385472                       # Per-master read serviced memory accesses
system.mem_ctrls.masterReadAccesses::.acctest.elem_matrix1_dma      1367040                       # Per-master read serviced memory accesses
system.mem_ctrls.masterReadAccesses::.acctest.elem_matrix2_dma      1343488                       # Per-master read serviced memory accesses
system.mem_ctrls.masterReadAccesses::.acctest.elem_matrix3_dma      1332224                       # Per-master read serviced memory accesses
system.mem_ctrls.masterReadAccesses::.acctest.isp0_dma         2908                       # Per-master read serviced memory accesses
system.mem_ctrls.masterReadAccesses::.cpu.data       340182                       # Per-master read serviced memory accesses
system.mem_ctrls.masterWriteAccesses::.acctest.convolution0_dma        27648                       # Per-master write serviced memory accesses
system.mem_ctrls.masterWriteAccesses::.acctest.convolution1_dma        23552                       # Per-master write serviced memory accesses
system.mem_ctrls.masterWriteAccesses::.acctest.elem_matrix0_dma       775168                       # Per-master write serviced memory accesses
system.mem_ctrls.masterWriteAccesses::.acctest.elem_matrix1_dma       768000                       # Per-master write serviced memory accesses
system.mem_ctrls.masterWriteAccesses::.acctest.elem_matrix2_dma       734208                       # Per-master write serviced memory accesses
system.mem_ctrls.masterWriteAccesses::.acctest.elem_matrix3_dma       748544                       # Per-master write serviced memory accesses
system.mem_ctrls.masterWriteAccesses::.acctest.grayscale0_dma         8192                       # Per-master write serviced memory accesses
system.mem_ctrls.masterWriteAccesses::.cpu.data       107941                       # Per-master write serviced memory accesses
system.mem_ctrls.masterReadTotalLat::.acctest.convolution0_dma   7726813750                       # Per-master read total memory access latency
system.mem_ctrls.masterReadTotalLat::.acctest.convolution1_dma   5077319500                       # Per-master read total memory access latency
system.mem_ctrls.masterReadTotalLat::.acctest.elem_matrix0_dma 176207195375                       # Per-master read total memory access latency
system.mem_ctrls.masterReadTotalLat::.acctest.elem_matrix1_dma 173524335500                       # Per-master read total memory access latency
system.mem_ctrls.masterReadTotalLat::.acctest.elem_matrix2_dma 170398151250                       # Per-master read total memory access latency
system.mem_ctrls.masterReadTotalLat::.acctest.elem_matrix3_dma 168714632000                       # Per-master read total memory access latency
system.mem_ctrls.masterReadTotalLat::.acctest.isp0_dma    354726000                       # Per-master read total memory access latency
system.mem_ctrls.masterReadTotalLat::.cpu.data   8915471625                       # Per-master read total memory access latency
system.mem_ctrls.masterWriteTotalLat::.acctest.convolution0_dma  11734218750                       # Per-master write total memory access latency
system.mem_ctrls.masterWriteTotalLat::.acctest.convolution1_dma  11852121500                       # Per-master write total memory access latency
system.mem_ctrls.masterWriteTotalLat::.acctest.elem_matrix0_dma 533724318375                       # Per-master write total memory access latency
system.mem_ctrls.masterWriteTotalLat::.acctest.elem_matrix1_dma 706271059875                       # Per-master write total memory access latency
system.mem_ctrls.masterWriteTotalLat::.acctest.elem_matrix2_dma 497234537000                       # Per-master write total memory access latency
system.mem_ctrls.masterWriteTotalLat::.acctest.elem_matrix3_dma 639753527625                       # Per-master write total memory access latency
system.mem_ctrls.masterWriteTotalLat::.acctest.grayscale0_dma   5730465250                       # Per-master write total memory access latency
system.mem_ctrls.masterWriteTotalLat::.cpu.data 764971374750                       # Per-master write total memory access latency
system.mem_ctrls.masterReadAvgLat::.acctest.convolution0_dma    132154.58                       # Per-master read average memory access latency
system.mem_ctrls.masterReadAvgLat::.acctest.convolution1_dma    109946.29                       # Per-master read average memory access latency
system.mem_ctrls.masterReadAvgLat::.acctest.elem_matrix0_dma    127182.07                       # Per-master read average memory access latency
system.mem_ctrls.masterReadAvgLat::.acctest.elem_matrix1_dma    126934.35                       # Per-master read average memory access latency
system.mem_ctrls.masterReadAvgLat::.acctest.elem_matrix2_dma    126832.66                       # Per-master read average memory access latency
system.mem_ctrls.masterReadAvgLat::.acctest.elem_matrix3_dma    126641.34                       # Per-master read average memory access latency
system.mem_ctrls.masterReadAvgLat::.acctest.isp0_dma    121982.81                       # Per-master read average memory access latency
system.mem_ctrls.masterReadAvgLat::.cpu.data     26207.95                       # Per-master read average memory access latency
system.mem_ctrls.masterWriteAvgLat::.acctest.convolution0_dma    424414.74                       # Per-master write average memory access latency
system.mem_ctrls.masterWriteAvgLat::.acctest.convolution1_dma    503232.06                       # Per-master write average memory access latency
system.mem_ctrls.masterWriteAvgLat::.acctest.elem_matrix0_dma    688527.28                       # Per-master write average memory access latency
system.mem_ctrls.masterWriteAvgLat::.acctest.elem_matrix1_dma    919623.78                       # Per-master write average memory access latency
system.mem_ctrls.masterWriteAvgLat::.acctest.elem_matrix2_dma    677239.33                       # Per-master write average memory access latency
system.mem_ctrls.masterWriteAvgLat::.acctest.elem_matrix3_dma    854663.89                       # Per-master write average memory access latency
system.mem_ctrls.masterWriteAvgLat::.acctest.grayscale0_dma    699519.68                       # Per-master write average memory access latency
system.mem_ctrls.masterWriteAvgLat::.cpu.data   7086939.85                       # Per-master write average memory access latency
system.mem_ctrls.pageHitRate                    93.01                       # Row buffer hit rate, read and write combined
system.mem_ctrls.rank0.actEnergy           1008878430                       # Energy for activate commands per rank (pJ)
system.mem_ctrls.rank0.preEnergy         531733574.399996                       # Energy for precharge commands per rank (pJ)
system.mem_ctrls.rank0.readEnergy          6896399160                       # Energy for read commands per rank (pJ)
system.mem_ctrls.rank0.writeEnergy         2076672312                       # Energy for write commands per rank (pJ)
system.mem_ctrls.rank0.refreshEnergy        685333740                       # Energy for refresh commands per rank (pJ)
system.mem_ctrls.rank0.actBackEnergy       4385554611                       # Energy for active background per rank (pJ)
system.mem_ctrls.rank0.preBackEnergy     367425460.799955                       # Energy for precharge background per rank (pJ)
system.mem_ctrls.rank0.actPowerDownEnergy            0                       # Energy for active power-down per rank (pJ)
system.mem_ctrls.rank0.prePowerDownEnergy            0                       # Energy for precharge power-down per rank (pJ)
system.mem_ctrls.rank0.selfRefreshEnergy            0                       # Energy for self refresh per rank (pJ)
system.mem_ctrls.rank0.totalEnergy       15951997288.199413                       # Total energy per rank (pJ)
system.mem_ctrls.rank0.averagePower        144.979174                       # Core power per rank (mW)
system.mem_ctrls.rank0.totalIdleTime                0                       # Total Idle time Per DRAM Rank
system.mem_ctrls.rank0.memoryStateTime::IDLE   8995281250                       # Time in different power states
system.mem_ctrls.rank0.memoryStateTime::REF   3684590000                       # Time in different power states
system.mem_ctrls.rank0.memoryStateTime::SREF            0                       # Time in different power states
system.mem_ctrls.rank0.memoryStateTime::PRE_PDN            0                       # Time in different power states
system.mem_ctrls.rank0.memoryStateTime::ACT  97350789125                       # Time in different power states
system.mem_ctrls.rank0.memoryStateTime::ACT_PDN            0                       # Time in different power states
system.iobus.pwrStateResidencyTicks::UNDEFINED 680385894375                       # Cumulative time (in ticks) in various power states
system.cpu_clk_domain.clock                       625                       # Clock period in ticks
system.cpu.pwrStateResidencyTicks::ON    680385894375                       # Cumulative time (in ticks) in various power states
system.cpu.icache.pwrStateResidencyTicks::UNDEFINED 680385894375                       # Cumulative time (in ticks) in various power states
system.cpu.icache.blocked_cycles::no_mshrs            0                       # number of cycles access was blocked
system.cpu.icache.blocked_cycles::no_targets            0                       # number of cycles access was blocked
system.cpu.icache.blocked::no_mshrs                 0                       # number of cycles access was blocked
system.cpu.icache.blocked::no_targets               0                       # number of cycles access was blocked
system.cpu.icache.avg_blocked_cycles::no_mshrs          nan                       # average number of cycles each access was blocked
system.cpu.icache.avg_blocked_cycles::no_targets          nan                       # average number of cycles each access was blocked
system.cpu.icache.overall_mshr_uncacheable_misses::.cpu.inst      1580645                       # number of overall MSHR uncacheable misses
system.cpu.icache.overall_mshr_uncacheable_misses::total      1580645                       # number of overall MSHR uncacheable misses
system.cpu.icache.overall_mshr_uncacheable_latency::.cpu.inst  66143240375                       # number of overall MSHR uncacheable cycles
system.cpu.icache.overall_mshr_uncacheable_latency::total  66143240375                       # number of overall MSHR uncacheable cycles
system.cpu.icache.overall_avg_mshr_uncacheable_latency::.cpu.inst 41845.727773                       # average overall mshr uncacheable latency
system.cpu.icache.overall_avg_mshr_uncacheable_latency::total 41845.727773                       # average overall mshr uncacheable latency
system.cpu.icache.replacements                      0                       # number of replacements
system.cpu.icache.ReadReq_mshr_uncacheable::.cpu.inst      1580645                       # number of ReadReq MSHR uncacheable
system.cpu.icache.ReadReq_mshr_uncacheable::total      1580645                       # number of ReadReq MSHR uncacheable
system.cpu.icache.ReadReq_mshr_uncacheable_latency::.cpu.inst  66143240375                       # number of ReadReq MSHR uncacheable cycles
system.cpu.icache.ReadReq_mshr_uncacheable_latency::total  66143240375                       # number of ReadReq MSHR uncacheable cycles
system.cpu.icache.ReadReq_avg_mshr_uncacheable_latency::.cpu.inst 41845.727773                       # average ReadReq mshr uncacheable latency
system.cpu.icache.ReadReq_avg_mshr_uncacheable_latency::total 41845.727773                       # average ReadReq mshr uncacheable latency
system.cpu.icache.tags.pwrStateResidencyTicks::UNDEFINED 680385894375                       # Cumulative time (in ticks) in various power states
system.cpu.icache.tags.tagsinuse                    0                       # Cycle average of tags in use
system.cpu.icache.tags.total_refs                   0                       # Total number of references to valid blocks.
system.cpu.icache.tags.sampled_refs                 0                       # Sample count of references to valid blocks.
system.cpu.icache.tags.avg_refs                   nan                       # Average number of references to valid blocks.
system.cpu.icache.tags.warmup_cycle                 0                       # Cycle when the warmup percentage was hit.
system.cpu.icache.tags.tag_accesses                 0                       # Number of tag accesses
system.cpu.icache.tags.data_accesses                0                       # Number of data accesses
system.cpu.dtb.walker.pwrStateResidencyTicks::UNDEFINED 680385894375                       # Cumulative time (in ticks) in various power states
system.cpu.dtb.stage2_mmu.stage2_tlb.walker.pwrStateResidencyTicks::UNDEFINED 680385894375                       # Cumulative time (in ticks) in various power states
system.cpu.dcache.pwrStateResidencyTicks::UNDEFINED 680385894375                       # Cumulative time (in ticks) in various power states
system.cpu.dcache.blocked_cycles::no_mshrs            0                       # number of cycles access was blocked
system.cpu.dcache.blocked_cycles::no_targets            0                       # number of cycles access was blocked
system.cpu.dcache.blocked::no_mshrs                 0                       # number of cycles access was blocked
system.cpu.dcache.blocked::no_targets               0                       # number of cycles access was blocked
system.cpu.dcache.avg_blocked_cycles::no_mshrs          nan                       # average number of cycles each access was blocked
system.cpu.dcache.avg_blocked_cycles::no_targets          nan                       # average number of cycles each access was blocked
system.cpu.dcache.overall_mshr_uncacheable_misses::.cpu.data      1172877                       # number of overall MSHR uncacheable misses
system.cpu.dcache.overall_mshr_uncacheable_misses::total      1172877                       # number of overall MSHR uncacheable misses
system.cpu.dcache.overall_mshr_uncacheable_latency::.cpu.data  90566968125                       # number of overall MSHR uncacheable cycles
system.cpu.dcache.overall_mshr_uncacheable_latency::total  90566968125                       # number of overall MSHR uncacheable cycles
system.cpu.dcache.overall_avg_mshr_uncacheable_latency::.cpu.data 77217.788502                       # average overall mshr uncacheable latency
system.cpu.dcache.overall_avg_mshr_uncacheable_latency::total 77217.788502                       # average overall mshr uncacheable latency
system.cpu.dcache.replacements                      0                       # number of replacements
system.cpu.dcache.ReadReq_mshr_uncacheable::.cpu.data       973666                       # number of ReadReq MSHR uncacheable
system.cpu.dcache.ReadReq_mshr_uncacheable::total       973666                       # number of ReadReq MSHR uncacheable
system.cpu.dcache.ReadReq_mshr_uncacheable_latency::.cpu.data  90566968125                       # number of ReadReq MSHR uncacheable cycles
system.cpu.dcache.ReadReq_mshr_uncacheable_latency::total  90566968125                       # number of ReadReq MSHR uncacheable cycles
system.cpu.dcache.ReadReq_avg_mshr_uncacheable_latency::.cpu.data 93016.463680                       # average ReadReq mshr uncacheable latency
system.cpu.dcache.ReadReq_avg_mshr_uncacheable_latency::total 93016.463680                       # average ReadReq mshr uncacheable latency
system.cpu.dcache.WriteReq_mshr_uncacheable::.cpu.data       199211                       # number of WriteReq MSHR uncacheable
system.cpu.dcache.WriteReq_mshr_uncacheable::total       199211                       # number of WriteReq MSHR uncacheable
system.cpu.dcache.tags.pwrStateResidencyTicks::UNDEFINED 680385894375                       # Cumulative time (in ticks) in various power states
system.cpu.dcache.tags.tagsinuse                    0                       # Cycle average of tags in use
system.cpu.dcache.tags.total_refs                   0                       # Total number of references to valid blocks.
system.cpu.dcache.tags.sampled_refs                 0                       # Sample count of references to valid blocks.
system.cpu.dcache.tags.avg_refs                   nan                       # Average number of references to valid blocks.
system.cpu.dcache.tags.warmup_cycle                 0                       # Cycle when the warmup percentage was hit.
system.cpu.dcache.tags.tag_accesses                 0                       # Number of tag accesses
system.cpu.dcache.tags.data_accesses                0                       # Number of data accesses
system.cpu.itb.walker.pwrStateResidencyTicks::UNDEFINED 680385894375                       # Cumulative time (in ticks) in various power states
system.cpu.itb.stage2_mmu.stage2_tlb.walker.pwrStateResidencyTicks::UNDEFINED 680385894375                       # Cumulative time (in ticks) in various power states

---------- End Simulation Statistics   ----------
