gem5 Simulator System.  http://gem5.org
gem5 is copyrighted software; use the --copyright option for details.

gem5 compiled Oct 27 2021 14:57:15
gem5 started Oct 27 2021 18:36:43
gem5 executing on cycle3.cs.rochester.edu, pid 99335
command line: /localdisk/sgupta45/gem5-SALAM/build/ARM/gem5.opt --debug-flags=HWACC,CommInterface,LLVMInterface,StreamDma,NoncoherentDma --outdir=BM_ARM_OUT/canny_4_deblur_4_gru_4_harris_0_lstm_0_FCFS_pipeline configs/SALAM/scheduler.py --mem-size=4GB --mem-type=LPDDR3_1600_1x32 --kernel=/localdisk/sgupta45/gem5-SALAM/benchmarks/scheduler/sw/bin/canny_4_deblur_4_gru_4_harris_0_lstm_0_FCFS.elf --disk-image=/localdisk/sgupta45/gem5-SALAM/baremetal/common/fake.iso --machine-type=VExpress_GEM5_V1 --dtb-file=none --bare-metal --cpu-type=DerivO3CPU --accpath=/localdisk/sgupta45/gem5-SALAM/benchmarks --caches --l2cache

info: Standard input is not a terminal, disabling listeners.
Global frequency set at 1000000000000 ticks per second
Cycle Counts Loaded!
Cycle Counts Loaded!
Cycle Counts Loaded!
Cycle Counts Loaded!
Cycle Counts Loaded!
Cycle Counts Loaded!
Cycle Counts Loaded!
Cycle Counts Loaded!
Cycle Counts Loaded!
Cycle Counts Loaded!
Cycle Counts Loaded!
**** REAL SIMULATION ****
595304352500: system.acctest.elem_matrix0_dma: SRC:0x00000000874d49a8, DST:0x0000000024000020, LEN:65536
595327562500: system.acctest.elem_matrix0_dma: Transfer completed in 23.21 us
595334063500: system.acctest.elem_matrix0_dma: SRC:0x00000000854d47e8, DST:0x0000000024010020, LEN:65536
595357253500: system.acctest.elem_matrix0_dma: Transfer completed in 23.19 us
595376692500: system.acctest.elem_matrix1_dma: SRC:0x00000000874edfa8, DST:0x0000000024100020, LEN:65536
********************************************************************************
system.acctest.elem_matrix0.compute
   ========= Performance Analysis =============
   Setup Time:                      1.86456seconds
   Simulation Time:                 31.6846seconds
   System Clock:                    1GHz
   Transistor Latency:              1ns
   Runtime:                         16394 cycles
   Runtime:                         16.394 us
   Stalls:                          1 cycles
   Executed Nodes:                  16392 cycles

********************************************************************************
   ========= Performance Analysis =================
   Setup Time:                      1.86456e+09ns
   Simulation Time:                 3.16846e+10ns
   System Clock:                    1GHz
   Transistor Latency:              0ns
   Runtime:                         16394 cycles
   Runtime:                         1.6394e-06 seconds
   Stalls:                          1 cycles
       Load Only:                   0 cycles
       Store Only:                  1 cycles
       Compute Only:                0 cycles
       Compute & Store:             0 cycles
       Load & Store:                0 cycles
       Load & Compute:              0 cycles
       Load & Compute & Store:      0 cycles
   Executed Nodes:                  16392 cycles
       Load Only:                   0 cycles
       Store Only:                  5 cycles
       Compute Only:                1 cycles
       Compute & Store:             32 cycles
       Load & Store:                0 cycles
       Load & Compute:              7 cycles
       Load & Compute & Store:      16347 cycles

   ========= Runtime FU's ========= (Max | Avg) ===
   Counter FU's:                      32 | 0.031233
   Integer Add/Sub FU's:               0 | 0.000000
   Integer Mul/Div FU's:               0 | 0.000000
   Integer Shifter FU's:               0 | 0.000000
   Integer Bitwise FU's:               1 | 0.000061
   Floating Point Float Add/Sub:       1 | 0.999390
   Floating Point Double Add/Sub:      0 | 0.000000
   Floating Point Float Mul/Div:       0 | 0.000000
   Floating Point Double Mul/Div:      0 | 0.000000
   0 Cycle Compare FU's:             101 | 0.031672
   GEP Instruction FU's:              96 | 0.031231
   Type Conversion FU's:               7 | 0.004523

   ========= Static FU's ==========================
   Counter FU's:                    0
   Integer Add/Sub FU's:            0
   Integer Mul/Div FU's:            0
   Integer Shifter FU's:            0
   Integer Bitwise FU's:            0
   Floating Point Float Add/Sub:    0
   Floating Point Double Add/Sub:   0
   Floating Point Float Mul/Div:    0
   Floating Point Double Mul/Div:   0
   0 Cycle Compare FU's:            0
   GEP Instruction FU's:            0
   Type Conversion FU's:            0
   Other:                           0

   ========= Pipeline Register Usage =============
   Total Number of Registers:       5641
   Max Register Usage Per Cycle:    135
   Avg Register Usage Per Cycle:    8.089301
   Avg Register Size (Bytes):       5.980606

   ========= Memory Configuration =================
   Cache Bus Ports:                 0
   Shared Cache Size:               0kB
   Local Bus Ports:                 0
   Private SPM Size:                256kB
   Private Read Ports:              0
   Private Write Ports:             0
   Private Read Bus Width:          64
   Private Write Bus Width:         64
       Memory Reads:                0
       Memory Writes:               0
   ========= Power Analysis ======================
   FU Leakage Power:                0.015866 mW 
   FU Dynamic Power:                0.231200 mW 
   FU Total Power:                  0.247066 mW 

   Registers Leakage Power:          0.003521 mW 
   Registers Dynamic Power:          0.015322 mW 
       Register Reads (Bits):        132616
       Register Writes (Bits):       133658
   Registers Total Power:            0.018843 mW

   SPM Leakage Power:               0.099590 mW
   SPM Read Dynamic Power:          0.965320 mW
   SPM Write Dynamic Power:         0.561696 mW
   SPM Total Power:                 1.626606 mW

   Cache Leakage Power:             0.000000 mW
   Cache Read Dynamic Power:        0.000000 mW
   Cache Write Dynamic Power:       0.000000 mW
   Cache Total Power:               0.000000 mW

   Accelerator Power:               0.265909 mW
   Accelerator Power (SPM):         1.892515 mW
   Accelerator Power (Cache):       0.265909 mW

   ========= Area Analysis =======================
   FU Area:                         2113.963867 um^2 (0.002114 mm^2)
   Register Area:                   286.180725 um^2 (0.000286 mm^2)
   SPM Area:                        1894.672457 um^2 (0.001895 mm^2)
   Cache Area:                      0.000000 um^2 (0.000000 mm^2)

   Accelerator Area:                2400.144531 um^2 (0.002400 mm^2)
   Accelerator Area (SPM):          4294.816988 um^2 (0.004295 mm^2)
   Accelerator Area (Cache):        2400.144531 um^2 (0.002400 mm^2)

   ========= SPM Resizing  =======================
   SPM Optimized Leakage Power:     0.003640 mW
   SPM Opt Area:                    97.220725 um^2

595399852500: system.acctest.elem_matrix1_dma: Transfer completed in 23.16 us
595406264500: system.acctest.elem_matrix1_dma: SRC:0x0000000085cd4808, DST:0x0000000024110020, LEN:65536
595429364500: system.acctest.elem_matrix1_dma: Transfer completed in 23.1 us
595448218500: system.acctest.elem_matrix2_dma: SRC:0x00000000875075a8, DST:0x0000000024200020, LEN:65536
********************************************************************************
system.acctest.elem_matrix1.compute
   ========= Performance Analysis =============
   Setup Time:                      3.481720seconds
   Simulation Time:                 37.805970seconds
   System Clock:                    1.000000GHz
   Transistor Latency:              1ns
   Runtime:                         16394 cycles
   Runtime:                         16.394000 us
   Stalls:                          1 cycles
   Executed Nodes:                  16392 cycles

********************************************************************************
   ========= Performance Analysis =================
   Setup Time:                      3481719872.000000ns
   Simulation Time:                 37805969600.000000ns
   System Clock:                    1.000000GHz
   Transistor Latency:              0ns
   Runtime:                         16394 cycles
   Runtime:                         0.000002 seconds
   Stalls:                          1 cycles
       Load Only:                   0 cycles
       Store Only:                  1 cycles
       Compute Only:                0 cycles
       Compute & Store:             0 cycles
       Load & Store:                0 cycles
       Load & Compute:              0 cycles
       Load & Compute & Store:      0 cycles
   Executed Nodes:                  16392 cycles
       Load Only:                   0 cycles
       Store Only:                  5 cycles
       Compute Only:                1 cycles
       Compute & Store:             32 cycles
       Load & Store:                0 cycles
       Load & Compute:              7 cycles
       Load & Compute & Store:      16347 cycles

   ========= Runtime FU's ========= (Max | Avg) ===
   Counter FU's:                      32 | 0.031233
   Integer Add/Sub FU's:               0 | 0.000000
   Integer Mul/Div FU's:               0 | 0.000000
   Integer Shifter FU's:               0 | 0.000000
   Integer Bitwise FU's:               1 | 0.000061
   Floating Point Float Add/Sub:       1 | 0.999390
   Floating Point Double Add/Sub:      0 | 0.000000
   Floating Point Float Mul/Div:       0 | 0.000000
   Floating Point Double Mul/Div:      0 | 0.000000
   0 Cycle Compare FU's:             101 | 0.031672
   GEP Instruction FU's:              96 | 0.031231
   Type Conversion FU's:               7 | 0.004523

   ========= Static FU's ==========================
   Counter FU's:                    0
   Integer Add/Sub FU's:            0
   Integer Mul/Div FU's:            0
   Integer Shifter FU's:            0
   Integer Bitwise FU's:            0
   Floating Point Float Add/Sub:    0
   Floating Point Double Add/Sub:   0
   Floating Point Float Mul/Div:    0
   Floating Point Double Mul/Div:   0
   0 Cycle Compare FU's:            0
   GEP Instruction FU's:            0
   Type Conversion FU's:            0
   Other:                           0

   ========= Pipeline Register Usage =============
   Total Number of Registers:       5641
   Max Register Usage Per Cycle:    135
   Avg Register Usage Per Cycle:    8.089301
   Avg Register Size (Bytes):       5.980606

   ========= Memory Configuration =================
   Cache Bus Ports:                 0
   Shared Cache Size:               0kB
   Local Bus Ports:                 0
   Private SPM Size:                256kB
   Private Read Ports:              0
   Private Write Ports:             0
   Private Read Bus Width:          64
   Private Write Bus Width:         64
       Memory Reads:                0
       Memory Writes:               0
   ========= Power Analysis ======================
   FU Leakage Power:                0.015866 mW 
   FU Dynamic Power:                0.231200 mW 
   FU Total Power:                  0.247066 mW 

   Registers Leakage Power:          0.003521 mW 
   Registers Dynamic Power:          0.015322 mW 
       Register Reads (Bits):        132616
       Register Writes (Bits):       133658
   Registers Total Power:            0.018843 mW

   SPM Leakage Power:               0.099590 mW
   SPM Read Dynamic Power:          0.965320 mW
   SPM Write Dynamic Power:         0.561696 mW
   SPM Total Power:                 1.626606 mW

   Cache Leakage Power:             0.000000 mW
   Cache Read Dynamic Power:        0.000000 mW
   Cache Write Dynamic Power:       0.000000 mW
   Cache Total Power:               0.000000 mW

   Accelerator Power:               0.265909 mW
   Accelerator Power (SPM):         1.892515 mW
   Accelerator Power (Cache):       0.265909 mW

   ========= Area Analysis =======================
   FU Area:                         2113.963867 um^2 (0.002114 mm^2)
   Register Area:                   286.180725 um^2 (0.000286 mm^2)
   SPM Area:                        1894.672457 um^2 (0.001895 mm^2)
   Cache Area:                      0.000000 um^2 (0.000000 mm^2)

   Accelerator Area:                2400.144531 um^2 (0.002400 mm^2)
   Accelerator Area (SPM):          4294.816988 um^2 (0.004295 mm^2)
   Accelerator Area (Cache):        2400.144531 um^2 (0.002400 mm^2)

   ========= SPM Resizing  =======================
   SPM Optimized Leakage Power:     0.003640 mW
   SPM Opt Area:                    97.220725 um^2

595471408500: system.acctest.elem_matrix2_dma: Transfer completed in 23.19 us
595477962500: system.acctest.elem_matrix2_dma: SRC:0x00000000864d4828, DST:0x0000000024210020, LEN:65536
595501052500: system.acctest.elem_matrix2_dma: Transfer completed in 23.09 us
595519718500: system.acctest.elem_matrix3_dma: SRC:0x0000000087520ba8, DST:0x0000000024300020, LEN:65536
********************************************************************************
system.acctest.elem_matrix2.compute
   ========= Performance Analysis =============
   Setup Time:                      3.636201seconds
   Simulation Time:                 37.457464seconds
   System Clock:                    1.000000GHz
   Transistor Latency:              1ns
   Runtime:                         16394 cycles
   Runtime:                         16.394000 us
   Stalls:                          1 cycles
   Executed Nodes:                  16392 cycles

********************************************************************************
   ========= Performance Analysis =================
   Setup Time:                      3636200885.000000ns
   Simulation Time:                 37457464479.000000ns
   System Clock:                    1.000000GHz
   Transistor Latency:              0ns
   Runtime:                         16394 cycles
   Runtime:                         0.000002 seconds
   Stalls:                          1 cycles
       Load Only:                   0 cycles
       Store Only:                  1 cycles
       Compute Only:                0 cycles
       Compute & Store:             0 cycles
       Load & Store:                0 cycles
       Load & Compute:              0 cycles
       Load & Compute & Store:      0 cycles
   Executed Nodes:                  16392 cycles
       Load Only:                   0 cycles
       Store Only:                  5 cycles
       Compute Only:                1 cycles
       Compute & Store:             32 cycles
       Load & Store:                0 cycles
       Load & Compute:              7 cycles
       Load & Compute & Store:      16347 cycles

   ========= Runtime FU's ========= (Max | Avg) ===
   Counter FU's:                      32 | 0.031233
   Integer Add/Sub FU's:               0 | 0.000000
   Integer Mul/Div FU's:               0 | 0.000000
   Integer Shifter FU's:               0 | 0.000000
   Integer Bitwise FU's:               1 | 0.000061
   Floating Point Float Add/Sub:       1 | 0.999390
   Floating Point Double Add/Sub:      0 | 0.000000
   Floating Point Float Mul/Div:       0 | 0.000000
   Floating Point Double Mul/Div:      0 | 0.000000
   0 Cycle Compare FU's:             101 | 0.031672
   GEP Instruction FU's:              96 | 0.031231
   Type Conversion FU's:               7 | 0.004523

   ========= Static FU's ==========================
   Counter FU's:                    0
   Integer Add/Sub FU's:            0
   Integer Mul/Div FU's:            0
   Integer Shifter FU's:            0
   Integer Bitwise FU's:            0
   Floating Point Float Add/Sub:    0
   Floating Point Double Add/Sub:   0
   Floating Point Float Mul/Div:    0
   Floating Point Double Mul/Div:   0
   0 Cycle Compare FU's:            0
   GEP Instruction FU's:            0
   Type Conversion FU's:            0
   Other:                           0

   ========= Pipeline Register Usage =============
   Total Number of Registers:       5641
   Max Register Usage Per Cycle:    135
   Avg Register Usage Per Cycle:    8.089301
   Avg Register Size (Bytes):       5.980606

   ========= Memory Configuration =================
   Cache Bus Ports:                 0
   Shared Cache Size:               0kB
   Local Bus Ports:                 0
   Private SPM Size:                256kB
   Private Read Ports:              0
   Private Write Ports:             0
   Private Read Bus Width:          64
   Private Write Bus Width:         64
       Memory Reads:                0
       Memory Writes:               0
   ========= Power Analysis ======================
   FU Leakage Power:                0.015866 mW 
   FU Dynamic Power:                0.231200 mW 
   FU Total Power:                  0.247066 mW 

   Registers Leakage Power:          0.003521 mW 
   Registers Dynamic Power:          0.015322 mW 
       Register Reads (Bits):        132616
       Register Writes (Bits):       133658
   Registers Total Power:            0.018843 mW

   SPM Leakage Power:               0.099590 mW
   SPM Read Dynamic Power:          0.965320 mW
   SPM Write Dynamic Power:         0.561696 mW
   SPM Total Power:                 1.626606 mW

   Cache Leakage Power:             0.000000 mW
   Cache Read Dynamic Power:        0.000000 mW
   Cache Write Dynamic Power:       0.000000 mW
   Cache Total Power:               0.000000 mW

   Accelerator Power:               0.265909 mW
   Accelerator Power (SPM):         1.892515 mW
   Accelerator Power (Cache):       0.265909 mW

   ========= Area Analysis =======================
   FU Area:                         2113.963867 um^2 (0.002114 mm^2)
   Register Area:                   286.180725 um^2 (0.000286 mm^2)
   SPM Area:                        1894.672457 um^2 (0.001895 mm^2)
   Cache Area:                      0.000000 um^2 (0.000000 mm^2)

   Accelerator Area:                2400.144531 um^2 (0.002400 mm^2)
   Accelerator Area (SPM):          4294.816988 um^2 (0.004295 mm^2)
   Accelerator Area (Cache):        2400.144531 um^2 (0.002400 mm^2)

   ========= SPM Resizing  =======================
   SPM Optimized Leakage Power:     0.003640 mW
   SPM Opt Area:                    97.220725 um^2

595542928500: system.acctest.elem_matrix3_dma: Transfer completed in 23.21 us
595549530500: system.acctest.elem_matrix3_dma: SRC:0x0000000086cd4848, DST:0x0000000024310020, LEN:65536
595572540500: system.acctest.elem_matrix3_dma: Transfer completed in 23.01 us
595592677500: system.acctest.isp0_dma: SRC:0x00000000850189a0, DST:0x0000000027000020, LEN:16900
********************************************************************************
system.acctest.elem_matrix3.compute
   ========= Performance Analysis =============
   Setup Time:                      3.700369seconds
   Simulation Time:                 37.230457seconds
   System Clock:                    1.000000GHz
   Transistor Latency:              1ns
   Runtime:                         16394 cycles
   Runtime:                         16.394000 us
   Stalls:                          1 cycles
   Executed Nodes:                  16392 cycles

********************************************************************************
   ========= Performance Analysis =================
   Setup Time:                      3700369290.000000ns
   Simulation Time:                 37230456848.000000ns
   System Clock:                    1.000000GHz
   Transistor Latency:              0ns
   Runtime:                         16394 cycles
   Runtime:                         0.000002 seconds
   Stalls:                          1 cycles
       Load Only:                   0 cycles
       Store Only:                  1 cycles
       Compute Only:                0 cycles
       Compute & Store:             0 cycles
       Load & Store:                0 cycles
       Load & Compute:              0 cycles
       Load & Compute & Store:      0 cycles
   Executed Nodes:                  16392 cycles
       Load Only:                   0 cycles
       Store Only:                  5 cycles
       Compute Only:                1 cycles
       Compute & Store:             32 cycles
       Load & Store:                0 cycles
       Load & Compute:              7 cycles
       Load & Compute & Store:      16347 cycles

   ========= Runtime FU's ========= (Max | Avg) ===
   Counter FU's:                      32 | 0.031233
   Integer Add/Sub FU's:               0 | 0.000000
   Integer Mul/Div FU's:               0 | 0.000000
   Integer Shifter FU's:               0 | 0.000000
   Integer Bitwise FU's:               1 | 0.000061
   Floating Point Float Add/Sub:       1 | 0.999390
   Floating Point Double Add/Sub:      0 | 0.000000
   Floating Point Float Mul/Div:       0 | 0.000000
   Floating Point Double Mul/Div:      0 | 0.000000
   0 Cycle Compare FU's:             101 | 0.031672
   GEP Instruction FU's:              96 | 0.031231
   Type Conversion FU's:               7 | 0.004523

   ========= Static FU's ==========================
   Counter FU's:                    0
   Integer Add/Sub FU's:            0
   Integer Mul/Div FU's:            0
   Integer Shifter FU's:            0
   Integer Bitwise FU's:            0
   Floating Point Float Add/Sub:    0
   Floating Point Double Add/Sub:   0
   Floating Point Float Mul/Div:    0
   Floating Point Double Mul/Div:   0
   0 Cycle Compare FU's:            0
   GEP Instruction FU's:            0
   Type Conversion FU's:            0
   Other:                           0

   ========= Pipeline Register Usage =============
   Total Number of Registers:       5641
   Max Register Usage Per Cycle:    135
   Avg Register Usage Per Cycle:    8.089301
   Avg Register Size (Bytes):       5.980606

   ========= Memory Configuration =================
   Cache Bus Ports:                 0
   Shared Cache Size:               0kB
   Local Bus Ports:                 0
   Private SPM Size:                256kB
   Private Read Ports:              0
   Private Write Ports:             0
   Private Read Bus Width:          64
   Private Write Bus Width:         64
       Memory Reads:                0
       Memory Writes:               0
   ========= Power Analysis ======================
   FU Leakage Power:                0.015866 mW 
   FU Dynamic Power:                0.231200 mW 
   FU Total Power:                  0.247066 mW 

   Registers Leakage Power:          0.003521 mW 
   Registers Dynamic Power:          0.015322 mW 
       Register Reads (Bits):        132616
       Register Writes (Bits):       133658
   Registers Total Power:            0.018843 mW

   SPM Leakage Power:               0.099590 mW
   SPM Read Dynamic Power:          0.965320 mW
   SPM Write Dynamic Power:         0.561696 mW
   SPM Total Power:                 1.626606 mW

   Cache Leakage Power:             0.000000 mW
   Cache Read Dynamic Power:        0.000000 mW
   Cache Write Dynamic Power:       0.000000 mW
   Cache Total Power:               0.000000 mW

   Accelerator Power:               0.265909 mW
   Accelerator Power (SPM):         1.892515 mW
   Accelerator Power (Cache):       0.265909 mW

   ========= Area Analysis =======================
   FU Area:                         2113.963867 um^2 (0.002114 mm^2)
   Register Area:                   286.180725 um^2 (0.000286 mm^2)
   SPM Area:                        1894.672457 um^2 (0.001895 mm^2)
   Cache Area:                      0.000000 um^2 (0.000000 mm^2)

   Accelerator Area:                2400.144531 um^2 (0.002400 mm^2)
   Accelerator Area (SPM):          4294.816988 um^2 (0.004295 mm^2)
   Accelerator Area (Cache):        2400.144531 um^2 (0.002400 mm^2)

   ========= SPM Resizing  =======================
   SPM Optimized Leakage Power:     0.003640 mW
   SPM Opt Area:                    97.220725 um^2

595596657500: system.acctest.isp0_dma: Transfer completed in 3.98 us
595625615500: system.acctest.elem_matrix0_dma: SRC:0x00000000854747e8, DST:0x0000000024000020, LEN:65536
********************************************************************************
system.acctest.isp0.compute
   ========= Performance Analysis =============
   Setup Time:                      0.212005seconds
   Simulation Time:                 207.234923seconds
   System Clock:                    1.000000GHz
   Transistor Latency:              1ns
   Runtime:                         34857 cycles
   Runtime:                         34.857000 us
   Stalls:                          1 cycles
   Executed Nodes:                  34855 cycles

********************************************************************************
   ========= Performance Analysis =================
   Setup Time:                      212004671.000000ns
   Simulation Time:                 207234923386.000000ns
   System Clock:                    1.000000GHz
   Transistor Latency:              0ns
   Runtime:                         34857 cycles
   Runtime:                         0.000003 seconds
   Stalls:                          1 cycles
       Load Only:                   0 cycles
       Store Only:                  1 cycles
       Compute Only:                0 cycles
       Compute & Store:             0 cycles
       Load & Store:                0 cycles
       Load & Compute:              0 cycles
       Load & Compute & Store:      0 cycles
   Executed Nodes:                  34855 cycles
       Load Only:                   0 cycles
       Store Only:                  1 cycles
       Compute Only:                3716 cycles
       Compute & Store:             18631 cycles
       Load & Store:                0 cycles
       Load & Compute:              3340 cycles
       Load & Compute & Store:      9167 cycles

   ========= Runtime FU's ========= (Max | Avg) ===
   Counter FU's:                      10 | 0.118160
   Integer Add/Sub FU's:              74 | 0.084377
   Integer Mul/Div FU's:              11 | 0.043920
   Integer Shifter FU's:               7 | 0.335903
   Integer Bitwise FU's:               4 | 0.059486
   Floating Point Float Add/Sub:      49 | 0.119993
   Floating Point Double Add/Sub:      0 | 0.000000
   Floating Point Float Mul/Div:      73 | 0.645039
   Floating Point Double Mul/Div:      0 | 0.000000
   0 Cycle Compare FU's:              91 | 0.606525
   GEP Instruction FU's:              33 | 0.117509
   Type Conversion FU's:             108 | 0.401632

   ========= Static FU's ==========================
   Counter FU's:                    0
   Integer Add/Sub FU's:            0
   Integer Mul/Div FU's:            0
   Integer Shifter FU's:            0
   Integer Bitwise FU's:            0
   Floating Point Float Add/Sub:    0
   Floating Point Double Add/Sub:   0
   Floating Point Float Mul/Div:    0
   Floating Point Double Mul/Div:   0
   0 Cycle Compare FU's:            0
   GEP Instruction FU's:            0
   Type Conversion FU's:            0
   Other:                           0

   ========= Pipeline Register Usage =============
   Total Number of Registers:       1620
   Max Register Usage Per Cycle:    148
   Avg Register Usage Per Cycle:    58.786843
   Avg Register Size (Bytes):       5.073357

   ========= Memory Configuration =================
   Cache Bus Ports:                 0
   Shared Cache Size:               0kB
   Local Bus Ports:                 0
   Private SPM Size:                112kB
   Private Read Ports:              0
   Private Write Ports:             0
   Private Read Bus Width:          64
   Private Write Bus Width:         64
       Memory Reads:                0
       Memory Writes:               0
   ========= Power Analysis ======================
   FU Leakage Power:                1.512678 mW 
   FU Dynamic Power:                9.402902 mW 
   FU Total Power:                  10.915580 mW 

   Registers Leakage Power:          0.021654 mW 
   Registers Dynamic Power:          3.083750 mW 
       Register Reads (Bits):        2049133
       Register Writes (Bits):       2049168
   Registers Total Power:            3.105404 mW

   SPM Leakage Power:               0.054673 mW
   SPM Read Dynamic Power:          7.521408 mW
   SPM Write Dynamic Power:         3.922488 mW
   SPM Total Power:                 11.498569 mW

   Cache Leakage Power:             0.000000 mW
   Cache Read Dynamic Power:        0.000000 mW
   Cache Write Dynamic Power:       0.000000 mW
   Cache Total Power:               0.000000 mW

   Accelerator Power:               14.020984 mW
   Accelerator Power (SPM):         25.519553 mW
   Accelerator Power (Cache):       14.020984 mW

   ========= Area Analysis =======================
   FU Area:                         159031.812500 um^2 (0.159032 mm^2)
   Register Area:                   1760.064941 um^2 (0.001760 mm^2)
   SPM Area:                        1537.371337 um^2 (0.001537 mm^2)
   Cache Area:                      0.000000 um^2 (0.000000 mm^2)

   Accelerator Area:                160791.875000 um^2 (0.160792 mm^2)
   Accelerator Area (SPM):          162329.246337 um^2 (0.162329 mm^2)
   Accelerator Area (Cache):        160791.875000 um^2 (0.160792 mm^2)

   ========= SPM Resizing  =======================
   SPM Optimized Leakage Power:     0.005165 mW
   SPM Opt Area:                    291.630286 um^2

595648805500: system.acctest.elem_matrix0_dma: Transfer completed in 23.19 us
********************************************************************************
system.acctest.elem_matrix0.compute
   ========= Performance Analysis =============
   Setup Time:                      3.891737seconds
   Simulation Time:                 35.048233seconds
   System Clock:                    1.000000GHz
   Transistor Latency:              1ns
   Runtime:                         16392 cycles
   Runtime:                         16.392000 us
   Stalls:                          0 cycles
   Executed Nodes:                  16391 cycles

********************************************************************************
   ========= Performance Analysis =================
   Setup Time:                      3891737112.000000ns
   Simulation Time:                 35048232826.000000ns
   System Clock:                    1.000000GHz
   Transistor Latency:              0ns
   Runtime:                         16392 cycles
   Runtime:                         0.000002 seconds
   Stalls:                          0 cycles
       Load Only:                   0 cycles
       Store Only:                  0 cycles
       Compute Only:                0 cycles
       Compute & Store:             0 cycles
       Load & Store:                0 cycles
       Load & Compute:              0 cycles
       Load & Compute & Store:      0 cycles
   Executed Nodes:                  16391 cycles
       Load Only:                   0 cycles
       Store Only:                  4 cycles
       Compute Only:                1 cycles
       Compute & Store:             32 cycles
       Load & Store:                0 cycles
       Load & Compute:              6 cycles
       Load & Compute & Store:      16348 cycles

   ========= Runtime FU's ========= (Max | Avg) ===
   Counter FU's:                      32 | 0.031237
   Integer Add/Sub FU's:               0 | 0.000000
   Integer Mul/Div FU's:               0 | 0.000000
   Integer Shifter FU's:               0 | 0.000000
   Integer Bitwise FU's:               1 | 0.000061
   Floating Point Float Add/Sub:       0 | 0.000000
   Floating Point Double Add/Sub:      0 | 0.000000
   Floating Point Float Mul/Div:       1 | 0.999512
   Floating Point Double Mul/Div:      0 | 0.000000
   0 Cycle Compare FU's:             101 | 0.031657
   GEP Instruction FU's:              96 | 0.031235
   Type Conversion FU's:               7 | 0.004523

   ========= Static FU's ==========================
   Counter FU's:                    0
   Integer Add/Sub FU's:            0
   Integer Mul/Div FU's:            0
   Integer Shifter FU's:            0
   Integer Bitwise FU's:            0
   Floating Point Float Add/Sub:    0
   Floating Point Double Add/Sub:   0
   Floating Point Float Mul/Div:    0
   Floating Point Double Mul/Div:   0
   0 Cycle Compare FU's:            0
   GEP Instruction FU's:            0
   Type Conversion FU's:            0
   Other:                           0

   ========= Pipeline Register Usage =============
   Total Number of Registers:       5641
   Max Register Usage Per Cycle:    135
   Avg Register Usage Per Cycle:    8.090288
   Avg Register Size (Bytes):       5.980606

   ========= Memory Configuration =================
   Cache Bus Ports:                 0
   Shared Cache Size:               0kB
   Local Bus Ports:                 0
   Private SPM Size:                256kB
   Private Read Ports:              0
   Private Write Ports:             0
   Private Read Bus Width:          64
   Private Write Bus Width:         64
       Memory Reads:                0
       Memory Writes:               0
   ========= Power Analysis ======================
   FU Leakage Power:                0.045377 mW 
   FU Dynamic Power:                0.293182 mW 
   FU Total Power:                  0.338559 mW 

   Registers Leakage Power:          0.003521 mW 
   Registers Dynamic Power:          0.015320 mW 
       Register Reads (Bits):        132616
       Register Writes (Bits):       133658
   Registers Total Power:            0.018841 mW

   SPM Leakage Power:               0.099590 mW
   SPM Read Dynamic Power:          1.510371 mW
   SPM Write Dynamic Power:         1.004807 mW
   SPM Total Power:                 2.614768 mW

   Cache Leakage Power:             0.000000 mW
   Cache Read Dynamic Power:        0.000000 mW
   Cache Write Dynamic Power:       0.000000 mW
   Cache Total Power:               0.000000 mW

   Accelerator Power:               0.357400 mW
   Accelerator Power (SPM):         2.972168 mW
   Accelerator Power (Cache):       0.357400 mW

   ========= Area Analysis =======================
   FU Area:                         5472.068359 um^2 (0.005472 mm^2)
   Register Area:                   286.180725 um^2 (0.000286 mm^2)
   SPM Area:                        1894.672457 um^2 (0.001895 mm^2)
   Cache Area:                      0.000000 um^2 (0.000000 mm^2)

   Accelerator Area:                5758.249023 um^2 (0.005758 mm^2)
   Accelerator Area (SPM):          7652.921481 um^2 (0.007653 mm^2)
   Accelerator Area (Cache):        5758.249023 um^2 (0.005758 mm^2)

   ========= SPM Resizing  =======================
   SPM Optimized Leakage Power:     0.003640 mW
   SPM Opt Area:                    97.220725 um^2

595685736500: system.acctest.elem_matrix1_dma: SRC:0x0000000024020020, DST:0x0000000024100020, LEN:65536
595695986500: system.acctest.elem_matrix1_dma: Transfer completed in 10.25 us
595702405500: system.acctest.elem_matrix1_dma: SRC:0x00000000854947e8, DST:0x0000000024110020, LEN:65536
595725675500: system.acctest.elem_matrix1_dma: Transfer completed in 23.27 us
********************************************************************************
system.acctest.elem_matrix1.compute
   ========= Performance Analysis =============
   Setup Time:                      3.609614seconds
   Simulation Time:                 34.951357seconds
   System Clock:                    1.000000GHz
   Transistor Latency:              1ns
   Runtime:                         16392 cycles
   Runtime:                         16.392000 us
   Stalls:                          0 cycles
   Executed Nodes:                  16391 cycles

********************************************************************************
   ========= Performance Analysis =================
   Setup Time:                      3609614286.000000ns
   Simulation Time:                 34951357236.000000ns
   System Clock:                    1.000000GHz
   Transistor Latency:              0ns
   Runtime:                         16392 cycles
   Runtime:                         0.000002 seconds
   Stalls:                          0 cycles
       Load Only:                   0 cycles
       Store Only:                  0 cycles
       Compute Only:                0 cycles
       Compute & Store:             0 cycles
       Load & Store:                0 cycles
       Load & Compute:              0 cycles
       Load & Compute & Store:      0 cycles
   Executed Nodes:                  16391 cycles
       Load Only:                   0 cycles
       Store Only:                  4 cycles
       Compute Only:                1 cycles
       Compute & Store:             32 cycles
       Load & Store:                0 cycles
       Load & Compute:              6 cycles
       Load & Compute & Store:      16348 cycles

   ========= Runtime FU's ========= (Max | Avg) ===
   Counter FU's:                      32 | 0.031237
   Integer Add/Sub FU's:               0 | 0.000000
   Integer Mul/Div FU's:               0 | 0.000000
   Integer Shifter FU's:               0 | 0.000000
   Integer Bitwise FU's:               1 | 0.000061
   Floating Point Float Add/Sub:       0 | 0.000000
   Floating Point Double Add/Sub:      0 | 0.000000
   Floating Point Float Mul/Div:       1 | 0.999512
   Floating Point Double Mul/Div:      0 | 0.000000
   0 Cycle Compare FU's:             101 | 0.031657
   GEP Instruction FU's:              96 | 0.031235
   Type Conversion FU's:               7 | 0.004523

   ========= Static FU's ==========================
   Counter FU's:                    0
   Integer Add/Sub FU's:            0
   Integer Mul/Div FU's:            0
   Integer Shifter FU's:            0
   Integer Bitwise FU's:            0
   Floating Point Float Add/Sub:    0
   Floating Point Double Add/Sub:   0
   Floating Point Float Mul/Div:    0
   Floating Point Double Mul/Div:   0
   0 Cycle Compare FU's:            0
   GEP Instruction FU's:            0
   Type Conversion FU's:            0
   Other:                           0

   ========= Pipeline Register Usage =============
   Total Number of Registers:       5641
   Max Register Usage Per Cycle:    135
   Avg Register Usage Per Cycle:    8.090288
   Avg Register Size (Bytes):       5.980606

   ========= Memory Configuration =================
   Cache Bus Ports:                 0
   Shared Cache Size:               0kB
   Local Bus Ports:                 0
   Private SPM Size:                256kB
   Private Read Ports:              0
   Private Write Ports:             0
   Private Read Bus Width:          64
   Private Write Bus Width:         64
       Memory Reads:                0
       Memory Writes:               0
   ========= Power Analysis ======================
   FU Leakage Power:                0.045377 mW 
   FU Dynamic Power:                0.293182 mW 
   FU Total Power:                  0.338559 mW 

   Registers Leakage Power:          0.003521 mW 
   Registers Dynamic Power:          0.015320 mW 
       Register Reads (Bits):        132616
       Register Writes (Bits):       133658
   Registers Total Power:            0.018841 mW

   SPM Leakage Power:               0.099590 mW
   SPM Read Dynamic Power:          1.510371 mW
   SPM Write Dynamic Power:         1.004807 mW
   SPM Total Power:                 2.614768 mW

   Cache Leakage Power:             0.000000 mW
   Cache Read Dynamic Power:        0.000000 mW
   Cache Write Dynamic Power:       0.000000 mW
   Cache Total Power:               0.000000 mW

   Accelerator Power:               0.357400 mW
   Accelerator Power (SPM):         2.972168 mW
   Accelerator Power (Cache):       0.357400 mW

   ========= Area Analysis =======================
   FU Area:                         5472.068359 um^2 (0.005472 mm^2)
   Register Area:                   286.180725 um^2 (0.000286 mm^2)
   SPM Area:                        1894.672457 um^2 (0.001895 mm^2)
   Cache Area:                      0.000000 um^2 (0.000000 mm^2)

   Accelerator Area:                5758.249023 um^2 (0.005758 mm^2)
   Accelerator Area (SPM):          7652.921481 um^2 (0.007653 mm^2)
   Accelerator Area (Cache):        5758.249023 um^2 (0.005758 mm^2)

   ========= SPM Resizing  =======================
   SPM Optimized Leakage Power:     0.003640 mW
   SPM Opt Area:                    97.220725 um^2

595750229500: system.acctest.elem_matrix0_dma: SRC:0x0000000024010020, DST:0x00000000854f47ec, LEN:65536
595761969500: system.acctest.elem_matrix0_dma: Transfer completed in 11.74 us
595786146500: system.acctest.elem_matrix1_dma: SRC:0x0000000024130020, DST:0x00000000855347ec, LEN:65536
595797966500: system.acctest.elem_matrix1_dma: Transfer completed in 11.82 us
595823957500: system.acctest.elem_matrix2_dma: SRC:0x0000000024220020, DST:0x00000000864e482c, LEN:65536
595835737500: system.acctest.elem_matrix2_dma: Transfer completed in 11.78 us
595852308500: system.acctest.elem_matrix0_dma: SRC:0x00000000875075a8, DST:0x0000000024000020, LEN:65536
595875348500: system.acctest.elem_matrix0_dma: Transfer completed in 23.04 us
595881718500: system.acctest.elem_matrix0_dma: SRC:0x00000000854747e8, DST:0x0000000024010020, LEN:65536
595904868500: system.acctest.elem_matrix0_dma: Transfer completed in 23.15 us
595923056500: system.acctest.elem_matrix1_dma: SRC:0x00000000864e482c, DST:0x0000000024100020, LEN:65536
********************************************************************************
system.acctest.elem_matrix0.compute
   ========= Performance Analysis =============
   Setup Time:                      3.515439seconds
   Simulation Time:                 34.827225seconds
   System Clock:                    1.000000GHz
   Transistor Latency:              1ns
   Runtime:                         16392 cycles
   Runtime:                         16.392000 us
   Stalls:                          0 cycles
   Executed Nodes:                  16391 cycles

********************************************************************************
   ========= Performance Analysis =================
   Setup Time:                      3515439133.000000ns
   Simulation Time:                 34827225343.000000ns
   System Clock:                    1.000000GHz
   Transistor Latency:              0ns
   Runtime:                         16392 cycles
   Runtime:                         0.000002 seconds
   Stalls:                          0 cycles
       Load Only:                   0 cycles
       Store Only:                  0 cycles
       Compute Only:                0 cycles
       Compute & Store:             0 cycles
       Load & Store:                0 cycles
       Load & Compute:              0 cycles
       Load & Compute & Store:      0 cycles
   Executed Nodes:                  16391 cycles
       Load Only:                   0 cycles
       Store Only:                  4 cycles
       Compute Only:                1 cycles
       Compute & Store:             32 cycles
       Load & Store:                0 cycles
       Load & Compute:              6 cycles
       Load & Compute & Store:      16348 cycles

   ========= Runtime FU's ========= (Max | Avg) ===
   Counter FU's:                      32 | 0.031237
   Integer Add/Sub FU's:               0 | 0.000000
   Integer Mul/Div FU's:               0 | 0.000000
   Integer Shifter FU's:               0 | 0.000000
   Integer Bitwise FU's:               1 | 0.000061
   Floating Point Float Add/Sub:       0 | 0.000000
   Floating Point Double Add/Sub:      0 | 0.000000
   Floating Point Float Mul/Div:       1 | 0.999512
   Floating Point Double Mul/Div:      0 | 0.000000
   0 Cycle Compare FU's:             101 | 0.031657
   GEP Instruction FU's:              96 | 0.031235
   Type Conversion FU's:               7 | 0.004523

   ========= Static FU's ==========================
   Counter FU's:                    0
   Integer Add/Sub FU's:            0
   Integer Mul/Div FU's:            0
   Integer Shifter FU's:            0
   Integer Bitwise FU's:            0
   Floating Point Float Add/Sub:    0
   Floating Point Double Add/Sub:   0
   Floating Point Float Mul/Div:    0
   Floating Point Double Mul/Div:   0
   0 Cycle Compare FU's:            0
   GEP Instruction FU's:            0
   Type Conversion FU's:            0
   Other:                           0

   ========= Pipeline Register Usage =============
   Total Number of Registers:       5641
   Max Register Usage Per Cycle:    135
   Avg Register Usage Per Cycle:    8.090288
   Avg Register Size (Bytes):       5.980606

   ========= Memory Configuration =================
   Cache Bus Ports:                 0
   Shared Cache Size:               0kB
   Local Bus Ports:                 0
   Private SPM Size:                256kB
   Private Read Ports:              0
   Private Write Ports:             0
   Private Read Bus Width:          64
   Private Write Bus Width:         64
       Memory Reads:                0
       Memory Writes:               0
   ========= Power Analysis ======================
   FU Leakage Power:                0.045377 mW 
   FU Dynamic Power:                0.293182 mW 
   FU Total Power:                  0.338559 mW 

   Registers Leakage Power:          0.003521 mW 
   Registers Dynamic Power:          0.015320 mW 
       Register Reads (Bits):        132616
       Register Writes (Bits):       133658
   Registers Total Power:            0.018841 mW

   SPM Leakage Power:               0.099590 mW
   SPM Read Dynamic Power:          2.004331 mW
   SPM Write Dynamic Power:         1.339804 mW
   SPM Total Power:                 3.443725 mW

   Cache Leakage Power:             0.000000 mW
   Cache Read Dynamic Power:        0.000000 mW
   Cache Write Dynamic Power:       0.000000 mW
   Cache Total Power:               0.000000 mW

   Accelerator Power:               0.357400 mW
   Accelerator Power (SPM):         3.801125 mW
   Accelerator Power (Cache):       0.357400 mW

   ========= Area Analysis =======================
   FU Area:                         5472.068359 um^2 (0.005472 mm^2)
   Register Area:                   286.180725 um^2 (0.000286 mm^2)
   SPM Area:                        1894.672457 um^2 (0.001895 mm^2)
   Cache Area:                      0.000000 um^2 (0.000000 mm^2)

   Accelerator Area:                5758.249023 um^2 (0.005758 mm^2)
   Accelerator Area (SPM):          7652.921481 um^2 (0.007653 mm^2)
   Accelerator Area (Cache):        5758.249023 um^2 (0.005758 mm^2)

   ========= SPM Resizing  =======================
   SPM Optimized Leakage Power:     0.003640 mW
   SPM Opt Area:                    97.220725 um^2

595946136500: system.acctest.elem_matrix1_dma: Transfer completed in 23.08 us
595952611500: system.acctest.elem_matrix1_dma: SRC:0x00000000854947e8, DST:0x0000000024110020, LEN:65536
595975711500: system.acctest.elem_matrix1_dma: Transfer completed in 23.1 us
595993852500: system.acctest.elem_matrix2_dma: SRC:0x0000000024120020, DST:0x0000000024200020, LEN:65536
********************************************************************************
system.acctest.elem_matrix1.compute
   ========= Performance Analysis =============
   Setup Time:                      3.812562seconds
   Simulation Time:                 35.427757seconds
   System Clock:                    1.000000GHz
   Transistor Latency:              1ns
   Runtime:                         17068 cycles
   Runtime:                         17.068000 us
   Stalls:                          110 cycles
   Executed Nodes:                  16957 cycles

********************************************************************************
   ========= Performance Analysis =================
   Setup Time:                      3812562067.000000ns
   Simulation Time:                 35427756545.000000ns
   System Clock:                    1.000000GHz
   Transistor Latency:              0ns
   Runtime:                         17068 cycles
   Runtime:                         0.000002 seconds
   Stalls:                          110 cycles
       Load Only:                   0 cycles
       Store Only:                  0 cycles
       Compute Only:                0 cycles
       Compute & Store:             0 cycles
       Load & Store:                69 cycles
       Load & Compute:              10 cycles
       Load & Compute & Store:      31 cycles
   Executed Nodes:                  16957 cycles
       Load Only:                   0 cycles
       Store Only:                  227 cycles
       Compute Only:                24 cycles
       Compute & Store:             352 cycles
       Load & Store:                0 cycles
       Load & Compute:              549 cycles
       Load & Compute & Store:      15805 cycles

   ========= Runtime FU's ========= (Max | Avg) ===
   Counter FU's:                      32 | 0.029999
   Integer Add/Sub FU's:               0 | 0.000000
   Integer Mul/Div FU's:               0 | 0.000000
   Integer Shifter FU's:               0 | 0.000000
   Integer Bitwise FU's:               1 | 0.000059
   Floating Point Float Add/Sub:       0 | 0.000000
   Floating Point Double Add/Sub:      0 | 0.000000
   Floating Point Float Mul/Div:       1 | 0.959925
   Floating Point Double Mul/Div:      0 | 0.000000
   0 Cycle Compare FU's:             101 | 0.030585
   GEP Instruction FU's:              96 | 0.029998
   Type Conversion FU's:               7 | 0.004344

   ========= Static FU's ==========================
   Counter FU's:                    0
   Integer Add/Sub FU's:            0
   Integer Mul/Div FU's:            0
   Integer Shifter FU's:            0
   Integer Bitwise FU's:            0
   Floating Point Float Add/Sub:    0
   Floating Point Double Add/Sub:   0
   Floating Point Float Mul/Div:    0
   Floating Point Double Mul/Div:   0
   0 Cycle Compare FU's:            0
   GEP Instruction FU's:            0
   Type Conversion FU's:            0
   Other:                           0

   ========= Pipeline Register Usage =============
   Total Number of Registers:       5641
   Max Register Usage Per Cycle:    135
   Avg Register Usage Per Cycle:    7.769862
   Avg Register Size (Bytes):       5.980606

   ========= Memory Configuration =================
   Cache Bus Ports:                 0
   Shared Cache Size:               0kB
   Local Bus Ports:                 0
   Private SPM Size:                256kB
   Private Read Ports:              0
   Private Write Ports:             0
   Private Read Bus Width:          64
   Private Write Bus Width:         64
       Memory Reads:                0
       Memory Writes:               0
   ========= Power Analysis ======================
   FU Leakage Power:                0.045377 mW 
   FU Dynamic Power:                0.305432 mW 
   FU Total Power:                  0.350809 mW 

   Registers Leakage Power:          0.003081 mW 
   Registers Dynamic Power:          0.013958 mW 
       Register Reads (Bits):        132616
       Register Writes (Bits):       133658
   Registers Total Power:            0.017039 mW

   SPM Leakage Power:               0.099590 mW
   SPM Read Dynamic Power:          2.004331 mW
   SPM Write Dynamic Power:         1.339804 mW
   SPM Total Power:                 3.443725 mW

   Cache Leakage Power:             0.000000 mW
   Cache Read Dynamic Power:        0.000000 mW
   Cache Write Dynamic Power:       0.000000 mW
   Cache Total Power:               0.000000 mW

   Accelerator Power:               0.367847 mW
   Accelerator Power (SPM):         3.811572 mW
   Accelerator Power (Cache):       0.367847 mW

   ========= Area Analysis =======================
   FU Area:                         5472.068359 um^2 (0.005472 mm^2)
   Register Area:                   250.408142 um^2 (0.000250 mm^2)
   SPM Area:                        1894.672457 um^2 (0.001895 mm^2)
   Cache Area:                      0.000000 um^2 (0.000000 mm^2)

   Accelerator Area:                5722.476562 um^2 (0.005722 mm^2)
   Accelerator Area (SPM):          7617.149020 um^2 (0.007617 mm^2)
   Accelerator Area (Cache):        5722.476562 um^2 (0.005722 mm^2)

   ========= SPM Resizing  =======================
   SPM Optimized Leakage Power:     0.003640 mW
   SPM Opt Area:                    97.220725 um^2

596004102500: system.acctest.elem_matrix2_dma: Transfer completed in 10.25 us
596010502500: system.acctest.elem_matrix2_dma: SRC:0x00000000854747e8, DST:0x0000000024210020, LEN:65536
596033682500: system.acctest.elem_matrix2_dma: Transfer completed in 23.18 us
********************************************************************************
system.acctest.elem_matrix2.compute
   ========= Performance Analysis =============
   Setup Time:                      3.781553seconds
   Simulation Time:                 35.957062seconds
   System Clock:                    1.000000GHz
   Transistor Latency:              1ns
   Runtime:                         16392 cycles
   Runtime:                         16.392000 us
   Stalls:                          0 cycles
   Executed Nodes:                  16391 cycles

********************************************************************************
   ========= Performance Analysis =================
   Setup Time:                      3781552610.000000ns
   Simulation Time:                 35957061822.000000ns
   System Clock:                    1.000000GHz
   Transistor Latency:              0ns
   Runtime:                         16392 cycles
   Runtime:                         0.000002 seconds
   Stalls:                          0 cycles
       Load Only:                   0 cycles
       Store Only:                  0 cycles
       Compute Only:                0 cycles
       Compute & Store:             0 cycles
       Load & Store:                0 cycles
       Load & Compute:              0 cycles
       Load & Compute & Store:      0 cycles
   Executed Nodes:                  16391 cycles
       Load Only:                   0 cycles
       Store Only:                  4 cycles
       Compute Only:                1 cycles
       Compute & Store:             32 cycles
       Load & Store:                0 cycles
       Load & Compute:              6 cycles
       Load & Compute & Store:      16348 cycles

   ========= Runtime FU's ========= (Max | Avg) ===
   Counter FU's:                      32 | 0.031237
   Integer Add/Sub FU's:               0 | 0.000000
   Integer Mul/Div FU's:               0 | 0.000000
   Integer Shifter FU's:               0 | 0.000000
   Integer Bitwise FU's:               1 | 0.000061
   Floating Point Float Add/Sub:       0 | 0.000000
   Floating Point Double Add/Sub:      0 | 0.000000
   Floating Point Float Mul/Div:       1 | 0.999512
   Floating Point Double Mul/Div:      0 | 0.000000
   0 Cycle Compare FU's:             101 | 0.031657
   GEP Instruction FU's:              96 | 0.031235
   Type Conversion FU's:               7 | 0.004523

   ========= Static FU's ==========================
   Counter FU's:                    0
   Integer Add/Sub FU's:            0
   Integer Mul/Div FU's:            0
   Integer Shifter FU's:            0
   Integer Bitwise FU's:            0
   Floating Point Float Add/Sub:    0
   Floating Point Double Add/Sub:   0
   Floating Point Float Mul/Div:    0
   Floating Point Double Mul/Div:   0
   0 Cycle Compare FU's:            0
   GEP Instruction FU's:            0
   Type Conversion FU's:            0
   Other:                           0

   ========= Pipeline Register Usage =============
   Total Number of Registers:       5641
   Max Register Usage Per Cycle:    135
   Avg Register Usage Per Cycle:    8.090288
   Avg Register Size (Bytes):       5.980606

   ========= Memory Configuration =================
   Cache Bus Ports:                 0
   Shared Cache Size:               0kB
   Local Bus Ports:                 0
   Private SPM Size:                256kB
   Private Read Ports:              0
   Private Write Ports:             0
   Private Read Bus Width:          64
   Private Write Bus Width:         64
       Memory Reads:                0
       Memory Writes:               0
   ========= Power Analysis ======================
   FU Leakage Power:                0.045377 mW 
   FU Dynamic Power:                0.293182 mW 
   FU Total Power:                  0.338559 mW 

   Registers Leakage Power:          0.003521 mW 
   Registers Dynamic Power:          0.015320 mW 
       Register Reads (Bits):        132616
       Register Writes (Bits):       133658
   Registers Total Power:            0.018841 mW

   SPM Leakage Power:               0.099590 mW
   SPM Read Dynamic Power:          1.510371 mW
   SPM Write Dynamic Power:         1.004807 mW
   SPM Total Power:                 2.614768 mW

   Cache Leakage Power:             0.000000 mW
   Cache Read Dynamic Power:        0.000000 mW
   Cache Write Dynamic Power:       0.000000 mW
   Cache Total Power:               0.000000 mW

   Accelerator Power:               0.357400 mW
   Accelerator Power (SPM):         2.972168 mW
   Accelerator Power (Cache):       0.357400 mW

   ========= Area Analysis =======================
   FU Area:                         5472.068359 um^2 (0.005472 mm^2)
   Register Area:                   286.180725 um^2 (0.000286 mm^2)
   SPM Area:                        1894.672457 um^2 (0.001895 mm^2)
   Cache Area:                      0.000000 um^2 (0.000000 mm^2)

   Accelerator Area:                5758.249023 um^2 (0.005758 mm^2)
   Accelerator Area (SPM):          7652.921481 um^2 (0.007653 mm^2)
   Accelerator Area (Cache):        5758.249023 um^2 (0.005758 mm^2)

   ========= SPM Resizing  =======================
   SPM Optimized Leakage Power:     0.003640 mW
   SPM Opt Area:                    97.220725 um^2

596057635500: system.acctest.elem_matrix0_dma: SRC:0x0000000024020020, DST:0x00000000864f482c, LEN:65536
596069365500: system.acctest.elem_matrix0_dma: Transfer completed in 11.73 us
596085722500: system.acctest.elem_matrix0_dma: SRC:0x00000000854f47ec, DST:0x0000000024000020, LEN:65536
596108822500: system.acctest.elem_matrix0_dma: Transfer completed in 23.1 us
596115277500: system.acctest.elem_matrix0_dma: SRC:0x00000000854847e8, DST:0x0000000024010020, LEN:65536
596138537500: system.acctest.elem_matrix0_dma: Transfer completed in 23.26 us
********************************************************************************
system.acctest.elem_matrix0.compute
   ========= Performance Analysis =============
   Setup Time:                      3.649453seconds
   Simulation Time:                 35.115396seconds
   System Clock:                    1.000000GHz
   Transistor Latency:              1ns
   Runtime:                         16394 cycles
   Runtime:                         16.394000 us
   Stalls:                          1 cycles
   Executed Nodes:                  16392 cycles

********************************************************************************
   ========= Performance Analysis =================
   Setup Time:                      3649453499.000000ns
   Simulation Time:                 35115396289.000000ns
   System Clock:                    1.000000GHz
   Transistor Latency:              0ns
   Runtime:                         16394 cycles
   Runtime:                         0.000002 seconds
   Stalls:                          1 cycles
       Load Only:                   0 cycles
       Store Only:                  1 cycles
       Compute Only:                0 cycles
       Compute & Store:             0 cycles
       Load & Store:                0 cycles
       Load & Compute:              0 cycles
       Load & Compute & Store:      0 cycles
   Executed Nodes:                  16392 cycles
       Load Only:                   0 cycles
       Store Only:                  5 cycles
       Compute Only:                1 cycles
       Compute & Store:             32 cycles
       Load & Store:                0 cycles
       Load & Compute:              7 cycles
       Load & Compute & Store:      16347 cycles

   ========= Runtime FU's ========= (Max | Avg) ===
   Counter FU's:                      32 | 0.031233
   Integer Add/Sub FU's:               0 | 0.000000
   Integer Mul/Div FU's:               0 | 0.000000
   Integer Shifter FU's:               0 | 0.000000
   Integer Bitwise FU's:               1 | 0.000061
   Floating Point Float Add/Sub:       1 | 0.999390
   Floating Point Double Add/Sub:      0 | 0.000000
   Floating Point Float Mul/Div:       0 | 0.000000
   Floating Point Double Mul/Div:      0 | 0.000000
   0 Cycle Compare FU's:             101 | 0.031672
   GEP Instruction FU's:              96 | 0.031231
   Type Conversion FU's:               7 | 0.004523

   ========= Static FU's ==========================
   Counter FU's:                    0
   Integer Add/Sub FU's:            0
   Integer Mul/Div FU's:            0
   Integer Shifter FU's:            0
   Integer Bitwise FU's:            0
   Floating Point Float Add/Sub:    0
   Floating Point Double Add/Sub:   0
   Floating Point Float Mul/Div:    0
   Floating Point Double Mul/Div:   0
   0 Cycle Compare FU's:            0
   GEP Instruction FU's:            0
   Type Conversion FU's:            0
   Other:                           0

   ========= Pipeline Register Usage =============
   Total Number of Registers:       5641
   Max Register Usage Per Cycle:    135
   Avg Register Usage Per Cycle:    8.089301
   Avg Register Size (Bytes):       5.980606

   ========= Memory Configuration =================
   Cache Bus Ports:                 0
   Shared Cache Size:               0kB
   Local Bus Ports:                 0
   Private SPM Size:                256kB
   Private Read Ports:              0
   Private Write Ports:             0
   Private Read Bus Width:          64
   Private Write Bus Width:         64
       Memory Reads:                0
       Memory Writes:               0
   ========= Power Analysis ======================
   FU Leakage Power:                0.015866 mW 
   FU Dynamic Power:                0.231200 mW 
   FU Total Power:                  0.247066 mW 

   Registers Leakage Power:          0.003521 mW 
   Registers Dynamic Power:          0.015322 mW 
       Register Reads (Bits):        132616
       Register Writes (Bits):       133658
   Registers Total Power:            0.018843 mW

   SPM Leakage Power:               0.099590 mW
   SPM Read Dynamic Power:          2.286445 mW
   SPM Write Dynamic Power:         1.590245 mW
   SPM Total Power:                 3.976279 mW

   Cache Leakage Power:             0.000000 mW
   Cache Read Dynamic Power:        0.000000 mW
   Cache Write Dynamic Power:       0.000000 mW
   Cache Total Power:               0.000000 mW

   Accelerator Power:               0.265909 mW
   Accelerator Power (SPM):         4.242188 mW
   Accelerator Power (Cache):       0.265909 mW

   ========= Area Analysis =======================
   FU Area:                         2113.963867 um^2 (0.002114 mm^2)
   Register Area:                   286.180725 um^2 (0.000286 mm^2)
   SPM Area:                        1894.672457 um^2 (0.001895 mm^2)
   Cache Area:                      0.000000 um^2 (0.000000 mm^2)

   Accelerator Area:                2400.144531 um^2 (0.002400 mm^2)
   Accelerator Area (SPM):          4294.816988 um^2 (0.004295 mm^2)
   Accelerator Area (Cache):        2400.144531 um^2 (0.002400 mm^2)

   ========= SPM Resizing  =======================
   SPM Optimized Leakage Power:     0.003640 mW
   SPM Opt Area:                    97.220725 um^2

596163207500: system.acctest.elem_matrix1_dma: SRC:0x0000000024130020, DST:0x000000008653482c, LEN:65536
596175087500: system.acctest.elem_matrix1_dma: Transfer completed in 11.88 us
596192329500: system.acctest.elem_matrix1_dma: SRC:0x00000000855347ec, DST:0x0000000024100020, LEN:65536
596215579500: system.acctest.elem_matrix1_dma: Transfer completed in 23.25 us
596222048500: system.acctest.elem_matrix1_dma: SRC:0x00000000854a47e8, DST:0x0000000024110020, LEN:65536
596245298500: system.acctest.elem_matrix1_dma: Transfer completed in 23.25 us
********************************************************************************
system.acctest.elem_matrix1.compute
   ========= Performance Analysis =============
   Setup Time:                      3.709828seconds
   Simulation Time:                 34.933538seconds
   System Clock:                    1.000000GHz
   Transistor Latency:              1ns
   Runtime:                         16394 cycles
   Runtime:                         16.394000 us
   Stalls:                          1 cycles
   Executed Nodes:                  16392 cycles

********************************************************************************
   ========= Performance Analysis =================
   Setup Time:                      3709828267.000000ns
   Simulation Time:                 34933537747.000000ns
   System Clock:                    1.000000GHz
   Transistor Latency:              0ns
   Runtime:                         16394 cycles
   Runtime:                         0.000002 seconds
   Stalls:                          1 cycles
       Load Only:                   0 cycles
       Store Only:                  1 cycles
       Compute Only:                0 cycles
       Compute & Store:             0 cycles
       Load & Store:                0 cycles
       Load & Compute:              0 cycles
       Load & Compute & Store:      0 cycles
   Executed Nodes:                  16392 cycles
       Load Only:                   0 cycles
       Store Only:                  5 cycles
       Compute Only:                1 cycles
       Compute & Store:             32 cycles
       Load & Store:                0 cycles
       Load & Compute:              7 cycles
       Load & Compute & Store:      16347 cycles

   ========= Runtime FU's ========= (Max | Avg) ===
   Counter FU's:                      32 | 0.031233
   Integer Add/Sub FU's:               0 | 0.000000
   Integer Mul/Div FU's:               0 | 0.000000
   Integer Shifter FU's:               0 | 0.000000
   Integer Bitwise FU's:               1 | 0.000061
   Floating Point Float Add/Sub:       1 | 0.999390
   Floating Point Double Add/Sub:      0 | 0.000000
   Floating Point Float Mul/Div:       0 | 0.000000
   Floating Point Double Mul/Div:      0 | 0.000000
   0 Cycle Compare FU's:             101 | 0.031672
   GEP Instruction FU's:              96 | 0.031231
   Type Conversion FU's:               7 | 0.004523

   ========= Static FU's ==========================
   Counter FU's:                    0
   Integer Add/Sub FU's:            0
   Integer Mul/Div FU's:            0
   Integer Shifter FU's:            0
   Integer Bitwise FU's:            0
   Floating Point Float Add/Sub:    0
   Floating Point Double Add/Sub:   0
   Floating Point Float Mul/Div:    0
   Floating Point Double Mul/Div:   0
   0 Cycle Compare FU's:            0
   GEP Instruction FU's:            0
   Type Conversion FU's:            0
   Other:                           0

   ========= Pipeline Register Usage =============
   Total Number of Registers:       5641
   Max Register Usage Per Cycle:    135
   Avg Register Usage Per Cycle:    8.089301
   Avg Register Size (Bytes):       5.980606

   ========= Memory Configuration =================
   Cache Bus Ports:                 0
   Shared Cache Size:               0kB
   Local Bus Ports:                 0
   Private SPM Size:                256kB
   Private Read Ports:              0
   Private Write Ports:             0
   Private Read Bus Width:          64
   Private Write Bus Width:         64
       Memory Reads:                0
       Memory Writes:               0
   ========= Power Analysis ======================
   FU Leakage Power:                0.015866 mW 
   FU Dynamic Power:                0.231200 mW 
   FU Total Power:                  0.247066 mW 

   Registers Leakage Power:          0.003521 mW 
   Registers Dynamic Power:          0.015322 mW 
       Register Reads (Bits):        132616
       Register Writes (Bits):       133658
   Registers Total Power:            0.018843 mW

   SPM Leakage Power:               0.099590 mW
   SPM Read Dynamic Power:          2.286445 mW
   SPM Write Dynamic Power:         1.590245 mW
   SPM Total Power:                 3.976279 mW

   Cache Leakage Power:             0.000000 mW
   Cache Read Dynamic Power:        0.000000 mW
   Cache Write Dynamic Power:       0.000000 mW
   Cache Total Power:               0.000000 mW

   Accelerator Power:               0.265909 mW
   Accelerator Power (SPM):         4.242188 mW
   Accelerator Power (Cache):       0.265909 mW

   ========= Area Analysis =======================
   FU Area:                         2113.963867 um^2 (0.002114 mm^2)
   Register Area:                   286.180725 um^2 (0.000286 mm^2)
   SPM Area:                        1894.672457 um^2 (0.001895 mm^2)
   Cache Area:                      0.000000 um^2 (0.000000 mm^2)

   Accelerator Area:                2400.144531 um^2 (0.002400 mm^2)
   Accelerator Area (SPM):          4294.816988 um^2 (0.004295 mm^2)
   Accelerator Area (Cache):        2400.144531 um^2 (0.002400 mm^2)

   ========= SPM Resizing  =======================
   SPM Optimized Leakage Power:     0.003640 mW
   SPM Opt Area:                    97.220725 um^2

596269208500: system.acctest.elem_matrix0_dma: SRC:0x0000000024020020, DST:0x00000000855047ec, LEN:65536
596281128500: system.acctest.elem_matrix0_dma: Transfer completed in 11.92 us
596297702500: system.acctest.elem_matrix0_dma: SRC:0x00000000864f482c, DST:0x0000000024000020, LEN:65536
596320882500: system.acctest.elem_matrix0_dma: Transfer completed in 23.18 us
596327276500: system.acctest.elem_matrix0_dma: SRC:0x00000000854847e8, DST:0x0000000024010020, LEN:65536
596350506500: system.acctest.elem_matrix0_dma: Transfer completed in 23.23 us
********************************************************************************
system.acctest.elem_matrix0.compute
   ========= Performance Analysis =============
   Setup Time:                      3.718764seconds
   Simulation Time:                 35.834299seconds
   System Clock:                    1.000000GHz
   Transistor Latency:              1ns
   Runtime:                         16394 cycles
   Runtime:                         16.394000 us
   Stalls:                          1 cycles
   Executed Nodes:                  16392 cycles

********************************************************************************
   ========= Performance Analysis =================
   Setup Time:                      3718763719.000000ns
   Simulation Time:                 35834298776.000000ns
   System Clock:                    1.000000GHz
   Transistor Latency:              0ns
   Runtime:                         16394 cycles
   Runtime:                         0.000002 seconds
   Stalls:                          1 cycles
       Load Only:                   0 cycles
       Store Only:                  1 cycles
       Compute Only:                0 cycles
       Compute & Store:             0 cycles
       Load & Store:                0 cycles
       Load & Compute:              0 cycles
       Load & Compute & Store:      0 cycles
   Executed Nodes:                  16392 cycles
       Load Only:                   0 cycles
       Store Only:                  5 cycles
       Compute Only:                1 cycles
       Compute & Store:             32 cycles
       Load & Store:                0 cycles
       Load & Compute:              7 cycles
       Load & Compute & Store:      16347 cycles

   ========= Runtime FU's ========= (Max | Avg) ===
   Counter FU's:                      32 | 0.031233
   Integer Add/Sub FU's:               0 | 0.000000
   Integer Mul/Div FU's:               0 | 0.000000
   Integer Shifter FU's:               0 | 0.000000
   Integer Bitwise FU's:               1 | 0.000061
   Floating Point Float Add/Sub:       1 | 0.999390
   Floating Point Double Add/Sub:      0 | 0.000000
   Floating Point Float Mul/Div:       0 | 0.000000
   Floating Point Double Mul/Div:      0 | 0.000000
   0 Cycle Compare FU's:             101 | 0.031672
   GEP Instruction FU's:              96 | 0.031231
   Type Conversion FU's:               7 | 0.004523

   ========= Static FU's ==========================
   Counter FU's:                    0
   Integer Add/Sub FU's:            0
   Integer Mul/Div FU's:            0
   Integer Shifter FU's:            0
   Integer Bitwise FU's:            0
   Floating Point Float Add/Sub:    0
   Floating Point Double Add/Sub:   0
   Floating Point Float Mul/Div:    0
   Floating Point Double Mul/Div:   0
   0 Cycle Compare FU's:            0
   GEP Instruction FU's:            0
   Type Conversion FU's:            0
   Other:                           0

   ========= Pipeline Register Usage =============
   Total Number of Registers:       5641
   Max Register Usage Per Cycle:    135
   Avg Register Usage Per Cycle:    8.089301
   Avg Register Size (Bytes):       5.980606

   ========= Memory Configuration =================
   Cache Bus Ports:                 0
   Shared Cache Size:               0kB
   Local Bus Ports:                 0
   Private SPM Size:                256kB
   Private Read Ports:              0
   Private Write Ports:             0
   Private Read Bus Width:          64
   Private Write Bus Width:         64
       Memory Reads:                0
       Memory Writes:               0
   ========= Power Analysis ======================
   FU Leakage Power:                0.015866 mW 
   FU Dynamic Power:                0.231200 mW 
   FU Total Power:                  0.247066 mW 

   Registers Leakage Power:          0.003521 mW 
   Registers Dynamic Power:          0.015322 mW 
       Register Reads (Bits):        132616
       Register Writes (Bits):       133658
   Registers Total Power:            0.018843 mW

   SPM Leakage Power:               0.099590 mW
   SPM Read Dynamic Power:          2.636758 mW
   SPM Write Dynamic Power:         1.839340 mW
   SPM Total Power:                 4.575688 mW

   Cache Leakage Power:             0.000000 mW
   Cache Read Dynamic Power:        0.000000 mW
   Cache Write Dynamic Power:       0.000000 mW
   Cache Total Power:               0.000000 mW

   Accelerator Power:               0.265909 mW
   Accelerator Power (SPM):         4.841597 mW
   Accelerator Power (Cache):       0.265909 mW

   ========= Area Analysis =======================
   FU Area:                         2113.963867 um^2 (0.002114 mm^2)
   Register Area:                   286.180725 um^2 (0.000286 mm^2)
   SPM Area:                        1894.672457 um^2 (0.001895 mm^2)
   Cache Area:                      0.000000 um^2 (0.000000 mm^2)

   Accelerator Area:                2400.144531 um^2 (0.002400 mm^2)
   Accelerator Area (SPM):          4294.816988 um^2 (0.004295 mm^2)
   Accelerator Area (Cache):        2400.144531 um^2 (0.002400 mm^2)

   ========= SPM Resizing  =======================
   SPM Optimized Leakage Power:     0.003640 mW
   SPM Opt Area:                    97.220725 um^2

596374838500: system.acctest.elem_matrix1_dma: SRC:0x0000000024130020, DST:0x00000000855447ec, LEN:65536
596386588500: system.acctest.elem_matrix1_dma: Transfer completed in 11.75 us
596403710500: system.acctest.elem_matrix1_dma: SRC:0x000000008653482c, DST:0x0000000024100020, LEN:65536
596426910500: system.acctest.elem_matrix1_dma: Transfer completed in 23.2 us
596433410500: system.acctest.elem_matrix1_dma: SRC:0x00000000854a47e8, DST:0x0000000024110020, LEN:65536
596456640500: system.acctest.elem_matrix1_dma: Transfer completed in 23.23 us
********************************************************************************
system.acctest.elem_matrix1.compute
   ========= Performance Analysis =============
   Setup Time:                      3.833812seconds
   Simulation Time:                 36.086736seconds
   System Clock:                    1.000000GHz
   Transistor Latency:              1ns
   Runtime:                         16394 cycles
   Runtime:                         16.394000 us
   Stalls:                          1 cycles
   Executed Nodes:                  16392 cycles

********************************************************************************
   ========= Performance Analysis =================
   Setup Time:                      3833812177.000000ns
   Simulation Time:                 36086735731.000000ns
   System Clock:                    1.000000GHz
   Transistor Latency:              0ns
   Runtime:                         16394 cycles
   Runtime:                         0.000002 seconds
   Stalls:                          1 cycles
       Load Only:                   0 cycles
       Store Only:                  1 cycles
       Compute Only:                0 cycles
       Compute & Store:             0 cycles
       Load & Store:                0 cycles
       Load & Compute:              0 cycles
       Load & Compute & Store:      0 cycles
   Executed Nodes:                  16392 cycles
       Load Only:                   0 cycles
       Store Only:                  5 cycles
       Compute Only:                1 cycles
       Compute & Store:             32 cycles
       Load & Store:                0 cycles
       Load & Compute:              7 cycles
       Load & Compute & Store:      16347 cycles

   ========= Runtime FU's ========= (Max | Avg) ===
   Counter FU's:                      32 | 0.031233
   Integer Add/Sub FU's:               0 | 0.000000
   Integer Mul/Div FU's:               0 | 0.000000
   Integer Shifter FU's:               0 | 0.000000
   Integer Bitwise FU's:               1 | 0.000061
   Floating Point Float Add/Sub:       1 | 0.999390
   Floating Point Double Add/Sub:      0 | 0.000000
   Floating Point Float Mul/Div:       0 | 0.000000
   Floating Point Double Mul/Div:      0 | 0.000000
   0 Cycle Compare FU's:             101 | 0.031672
   GEP Instruction FU's:              96 | 0.031231
   Type Conversion FU's:               7 | 0.004523

   ========= Static FU's ==========================
   Counter FU's:                    0
   Integer Add/Sub FU's:            0
   Integer Mul/Div FU's:            0
   Integer Shifter FU's:            0
   Integer Bitwise FU's:            0
   Floating Point Float Add/Sub:    0
   Floating Point Double Add/Sub:   0
   Floating Point Float Mul/Div:    0
   Floating Point Double Mul/Div:   0
   0 Cycle Compare FU's:            0
   GEP Instruction FU's:            0
   Type Conversion FU's:            0
   Other:                           0

   ========= Pipeline Register Usage =============
   Total Number of Registers:       5641
   Max Register Usage Per Cycle:    135
   Avg Register Usage Per Cycle:    8.089301
   Avg Register Size (Bytes):       5.980606

   ========= Memory Configuration =================
   Cache Bus Ports:                 0
   Shared Cache Size:               0kB
   Local Bus Ports:                 0
   Private SPM Size:                256kB
   Private Read Ports:              0
   Private Write Ports:             0
   Private Read Bus Width:          64
   Private Write Bus Width:         64
       Memory Reads:                0
       Memory Writes:               0
   ========= Power Analysis ======================
   FU Leakage Power:                0.015866 mW 
   FU Dynamic Power:                0.231200 mW 
   FU Total Power:                  0.247066 mW 

   Registers Leakage Power:          0.003521 mW 
   Registers Dynamic Power:          0.015322 mW 
       Register Reads (Bits):        132616
       Register Writes (Bits):       133658
   Registers Total Power:            0.018843 mW

   SPM Leakage Power:               0.099590 mW
   SPM Read Dynamic Power:          2.636758 mW
   SPM Write Dynamic Power:         1.839340 mW
   SPM Total Power:                 4.575688 mW

   Cache Leakage Power:             0.000000 mW
   Cache Read Dynamic Power:        0.000000 mW
   Cache Write Dynamic Power:       0.000000 mW
   Cache Total Power:               0.000000 mW

[...]
   GEP Instruction FU's:               4 | 0.132683
   Type Conversion FU's:               7 | 0.186618

   ========= Static FU's ==========================
   Counter FU's:                    0
   Integer Add/Sub FU's:            0
   Integer Mul/Div FU's:            0
   Integer Shifter FU's:            0
   Integer Bitwise FU's:            0
   Floating Point Float Add/Sub:    0
   Floating Point Double Add/Sub:   0
   Floating Point Float Mul/Div:    0
   Floating Point Double Mul/Div:   0
   0 Cycle Compare FU's:            0
   GEP Instruction FU's:            0
   Type Conversion FU's:            0
   Other:                           0

   ========= Pipeline Register Usage =============
   Total Number of Registers:       1702
   Max Register Usage Per Cycle:    20
   Avg Register Usage Per Cycle:    6.348199
   Avg Register Size (Bytes):       5.569148

   ========= Memory Configuration =================
   Cache Bus Ports:                 0
   Shared Cache Size:               0kB
   Local Bus Ports:                 0
   Private SPM Size:                192kB
   Private Read Ports:              0
   Private Write Ports:             0
   Private Read Bus Width:          64
   Private Write Bus Width:         64
       Memory Reads:                0
       Memory Writes:               0
   ========= Power Analysis ======================
   FU Leakage Power:                0.196912 mW 
   FU Dynamic Power:                2743.409912 mW 
   FU Total Power:                  2743.606934 mW 

   Registers Leakage Power:          0.002459 mW 
   Registers Dynamic Power:          75.251152 mW 
       Register Reads (Bits):        9811808
       Register Writes (Bits):       10049727
   Registers Total Power:            75.253609 mW

   SPM Leakage Power:               0.068560 mW
   SPM Read Dynamic Power:          27.043978 mW
   SPM Write Dynamic Power:         4.537772 mW
   SPM Total Power:                 31.650310 mW

   Cache Leakage Power:             0.000000 mW
   Cache Read Dynamic Power:        0.000000 mW
   Cache Write Dynamic Power:       0.000000 mW
   Cache Total Power:               0.000000 mW

   Accelerator Power:               2818.860596 mW
   Accelerator Power (SPM):         2850.510906 mW
   Accelerator Power (Cache):       2818.860596 mW

   ========= Area Analysis =======================
   FU Area:                         22931.867188 um^2 (0.022932 mm^2)
   Register Area:                   199.868912 um^2 (0.000200 mm^2)
   SPM Area:                        1013.937795 um^2 (0.001014 mm^2)
   Cache Area:                      0.000000 um^2 (0.000000 mm^2)

   Accelerator Area:                23131.736328 um^2 (0.023132 mm^2)
   Accelerator Area (SPM):          24145.674123 um^2 (0.024146 mm^2)
   Accelerator Area (Cache):        23131.736328 um^2 (0.023132 mm^2)

   ========= SPM Resizing  =======================
   SPM Optimized Leakage Power:     0.001770 mW
   SPM Opt Area:                    77.453784 um^2

666276598500: system.acctest.elem_matrix0_dma: SRC:0x00000000853e0c58, DST:0x0000000024000020, LEN:65536
666299738500: system.acctest.elem_matrix0_dma: Transfer completed in 23.14 us
666306171500: system.acctest.elem_matrix0_dma: SRC:0x0000000022020020, DST:0x0000000024010020, LEN:65536
666316421500: system.acctest.elem_matrix0_dma: Transfer completed in 10.25 us
********************************************************************************
system.acctest.elem_matrix0.compute
   ========= Performance Analysis =============
   Setup Time:                      2.194995seconds
   Simulation Time:                 37.394567seconds
   System Clock:                    1.000000GHz
   Transistor Latency:              1ns
   Runtime:                         16392 cycles
   Runtime:                         16.392000 us
   Stalls:                          0 cycles
   Executed Nodes:                  16391 cycles

********************************************************************************
   ========= Performance Analysis =================
   Setup Time:                      2194995258.000000ns
   Simulation Time:                 37394567204.000000ns
   System Clock:                    1.000000GHz
   Transistor Latency:              0ns
   Runtime:                         16392 cycles
   Runtime:                         0.000002 seconds
   Stalls:                          0 cycles
       Load Only:                   0 cycles
       Store Only:                  0 cycles
       Compute Only:                0 cycles
       Compute & Store:             0 cycles
       Load & Store:                0 cycles
       Load & Compute:              0 cycles
       Load & Compute & Store:      0 cycles
   Executed Nodes:                  16391 cycles
       Load Only:                   0 cycles
       Store Only:                  4 cycles
       Compute Only:                1 cycles
       Compute & Store:             32 cycles
       Load & Store:                0 cycles
       Load & Compute:              6 cycles
       Load & Compute & Store:      16348 cycles

   ========= Runtime FU's ========= (Max | Avg) ===
   Counter FU's:                      32 | 0.031237
   Integer Add/Sub FU's:               0 | 0.000000
   Integer Mul/Div FU's:               0 | 0.000000
   Integer Shifter FU's:               0 | 0.000000
   Integer Bitwise FU's:               1 | 0.000061
   Floating Point Float Add/Sub:       0 | 0.000000
   Floating Point Double Add/Sub:      0 | 0.000000
   Floating Point Float Mul/Div:       1 | 0.999512
   Floating Point Double Mul/Div:      0 | 0.000000
   0 Cycle Compare FU's:             101 | 0.031657
   GEP Instruction FU's:              96 | 0.031235
   Type Conversion FU's:               7 | 0.004523

   ========= Static FU's ==========================
   Counter FU's:                    0
   Integer Add/Sub FU's:            0
   Integer Mul/Div FU's:            0
   Integer Shifter FU's:            0
   Integer Bitwise FU's:            0
   Floating Point Float Add/Sub:    0
   Floating Point Double Add/Sub:   0
   Floating Point Float Mul/Div:    0
   Floating Point Double Mul/Div:   0
   0 Cycle Compare FU's:            0
   GEP Instruction FU's:            0
   Type Conversion FU's:            0
   Other:                           0

   ========= Pipeline Register Usage =============
   Total Number of Registers:       5641
   Max Register Usage Per Cycle:    135
   Avg Register Usage Per Cycle:    8.090288
   Avg Register Size (Bytes):       5.980606

   ========= Memory Configuration =================
   Cache Bus Ports:                 0
   Shared Cache Size:               0kB
   Local Bus Ports:                 0
   Private SPM Size:                256kB
   Private Read Ports:              0
   Private Write Ports:             0
   Private Read Bus Width:          64
   Private Write Bus Width:         64
       Memory Reads:                0
       Memory Writes:               0
   ========= Power Analysis ======================
   FU Leakage Power:                0.045377 mW 
   FU Dynamic Power:                0.293182 mW 
   FU Total Power:                  0.338559 mW 

   Registers Leakage Power:          0.003521 mW 
   Registers Dynamic Power:          0.015320 mW 
       Register Reads (Bits):        132616
       Register Writes (Bits):       133658
   Registers Total Power:            0.018841 mW

   SPM Leakage Power:               0.099590 mW
   SPM Read Dynamic Power:          13.438950 mW
   SPM Write Dynamic Power:         10.116448 mW
   SPM Total Power:                 23.654988 mW

   Cache Leakage Power:             0.000000 mW
   Cache Read Dynamic Power:        0.000000 mW
   Cache Write Dynamic Power:       0.000000 mW
   Cache Total Power:               0.000000 mW

   Accelerator Power:               0.357400 mW
   Accelerator Power (SPM):         24.012388 mW
   Accelerator Power (Cache):       0.357400 mW

   ========= Area Analysis =======================
   FU Area:                         5472.068359 um^2 (0.005472 mm^2)
   Register Area:                   286.180725 um^2 (0.000286 mm^2)
   SPM Area:                        1894.672457 um^2 (0.001895 mm^2)
   Cache Area:                      0.000000 um^2 (0.000000 mm^2)

   Accelerator Area:                5758.249023 um^2 (0.005758 mm^2)
   Accelerator Area (SPM):          7652.921481 um^2 (0.007653 mm^2)
   Accelerator Area (Cache):        5758.249023 um^2 (0.005758 mm^2)

   ========= SPM Resizing  =======================
   SPM Optimized Leakage Power:     0.003640 mW
   SPM Opt Area:                    97.220725 um^2

666350291500: system.acctest.elem_matrix0_dma: SRC:0x0000000024020020, DST:0x00000000853e0c58, LEN:65536
666362191500: system.acctest.elem_matrix0_dma: Transfer completed in 11.9 us
********************************************************************************
system.acctest.convolution1.compute
   ========= Performance Analysis =============
   Setup Time:                      0.240898seconds
   Simulation Time:                 311.394212seconds
   System Clock:                    1.000000GHz
   Transistor Latency:              1ns
   Runtime:                         1545605 cycles
   Runtime:                         1545.605000 us
   Stalls:                          0 cycles
   Executed Nodes:                  1545604 cycles

********************************************************************************
   ========= Performance Analysis =================
   Setup Time:                      240897899.000000ns
   Simulation Time:                 311394211908.000000ns
   System Clock:                    1.000000GHz
   Transistor Latency:              0ns
   Runtime:                         1545605 cycles
   Runtime:                         0.000155 seconds
   Stalls:                          0 cycles
       Load Only:                   0 cycles
       Store Only:                  0 cycles
       Compute Only:                0 cycles
       Compute & Store:             0 cycles
       Load & Store:                0 cycles
       Load & Compute:              0 cycles
       Load & Compute & Store:      0 cycles
   Executed Nodes:                  1545604 cycles
       Load Only:                   0 cycles
       Store Only:                  0 cycles
       Compute Only:                1127291 cycles
       Compute & Store:             16357 cycles
       Load & Store:                0 cycles
       Load & Compute:              401929 cycles
       Load & Compute & Store:      27 cycles

   ========= Runtime FU's ========= (Max | Avg) ===
   Counter FU's:                       3 | 0.112298
   Integer Add/Sub FU's:               4 | 0.211564
   Integer Mul/Div FU's:               1 | 0.052505
   Integer Shifter FU's:              10 | 0.005268
   Integer Bitwise FU's:               2 | 0.184266
   Floating Point Float Add/Sub:       5 | 0.208058
   Floating Point Double Add/Sub:      0 | 0.000000
   Floating Point Float Mul/Div:       5 | 0.052060
   Floating Point Double Mul/Div:      0 | 0.000000
   0 Cycle Compare FU's:              40 | 0.145946
   GEP Instruction FU's:               4 | 0.132683
   Type Conversion FU's:               7 | 0.186618

   ========= Static FU's ==========================
   Counter FU's:                    0
   Integer Add/Sub FU's:            0
   Integer Mul/Div FU's:            0
   Integer Shifter FU's:            0
   Integer Bitwise FU's:            0
   Floating Point Float Add/Sub:    0
   Floating Point Double Add/Sub:   0
   Floating Point Float Mul/Div:    0
   Floating Point Double Mul/Div:   0
   0 Cycle Compare FU's:            0
   GEP Instruction FU's:            0
   Type Conversion FU's:            0
   Other:                           0

   ========= Pipeline Register Usage =============
   Total Number of Registers:       1702
   Max Register Usage Per Cycle:    20
   Avg Register Usage Per Cycle:    6.348199
   Avg Register Size (Bytes):       5.569148

   ========= Memory Configuration =================
   Cache Bus Ports:                 0
   Shared Cache Size:               0kB
   Local Bus Ports:                 0
   Private SPM Size:                192kB
   Private Read Ports:              0
   Private Write Ports:             0
   Private Read Bus Width:          64
   Private Write Bus Width:         64
       Memory Reads:                0
       Memory Writes:               0
   ========= Power Analysis ======================
   FU Leakage Power:                0.196912 mW 
   FU Dynamic Power:                2743.559570 mW 
   FU Total Power:                  2743.756592 mW 

   Registers Leakage Power:          0.002459 mW 
   Registers Dynamic Power:          75.251152 mW 
       Register Reads (Bits):        9811808
       Register Writes (Bits):       10049727
   Registers Total Power:            75.253609 mW

   SPM Leakage Power:               0.068560 mW
   SPM Read Dynamic Power:          27.043978 mW
   SPM Write Dynamic Power:         4.537772 mW
   SPM Total Power:                 31.650310 mW

   Cache Leakage Power:             0.000000 mW
   Cache Read Dynamic Power:        0.000000 mW
   Cache Write Dynamic Power:       0.000000 mW
   Cache Total Power:               0.000000 mW

   Accelerator Power:               2819.010254 mW
   Accelerator Power (SPM):         2850.660564 mW
   Accelerator Power (Cache):       2819.010254 mW

   ========= Area Analysis =======================
   FU Area:                         22931.867188 um^2 (0.022932 mm^2)
   Register Area:                   199.868912 um^2 (0.000200 mm^2)
   SPM Area:                        1013.937795 um^2 (0.001014 mm^2)
   Cache Area:                      0.000000 um^2 (0.000000 mm^2)

   Accelerator Area:                23131.736328 um^2 (0.023132 mm^2)
   Accelerator Area (SPM):          24145.674123 um^2 (0.024146 mm^2)
   Accelerator Area (Cache):        23131.736328 um^2 (0.023132 mm^2)

   ========= SPM Resizing  =======================
   SPM Optimized Leakage Power:     0.001770 mW
   SPM Opt Area:                    77.453784 um^2

666501090500: system.acctest.elem_matrix1_dma: SRC:0x0000000085442a20, DST:0x0000000024100020, LEN:65536
666516390500: system.acctest.elem_matrix1_dma: Transfer completed in 15.3 us
666522815500: system.acctest.elem_matrix1_dma: SRC:0x0000000022120020, DST:0x0000000024110020, LEN:65536
666533065500: system.acctest.elem_matrix1_dma: Transfer completed in 10.25 us
********************************************************************************
system.acctest.elem_matrix1.compute
   ========= Performance Analysis =============
   Setup Time:                      3.029342seconds
   Simulation Time:                 33.891671seconds
   System Clock:                    1.000000GHz
   Transistor Latency:              1ns
   Runtime:                         16392 cycles
   Runtime:                         16.392000 us
   Stalls:                          0 cycles
   Executed Nodes:                  16391 cycles

********************************************************************************
   ========= Performance Analysis =================
   Setup Time:                      3029341549.000000ns
   Simulation Time:                 33891671039.000004ns
   System Clock:                    1.000000GHz
   Transistor Latency:              0ns
   Runtime:                         16392 cycles
   Runtime:                         0.000002 seconds
   Stalls:                          0 cycles
       Load Only:                   0 cycles
       Store Only:                  0 cycles
       Compute Only:                0 cycles
       Compute & Store:             0 cycles
       Load & Store:                0 cycles
       Load & Compute:              0 cycles
       Load & Compute & Store:      0 cycles
   Executed Nodes:                  16391 cycles
       Load Only:                   0 cycles
       Store Only:                  4 cycles
       Compute Only:                1 cycles
       Compute & Store:             32 cycles
       Load & Store:                0 cycles
       Load & Compute:              6 cycles
       Load & Compute & Store:      16348 cycles

   ========= Runtime FU's ========= (Max | Avg) ===
   Counter FU's:                      32 | 0.031237
   Integer Add/Sub FU's:               0 | 0.000000
   Integer Mul/Div FU's:               0 | 0.000000
   Integer Shifter FU's:               0 | 0.000000
   Integer Bitwise FU's:               1 | 0.000061
   Floating Point Float Add/Sub:       0 | 0.000000
   Floating Point Double Add/Sub:      0 | 0.000000
   Floating Point Float Mul/Div:       1 | 0.999512
   Floating Point Double Mul/Div:      0 | 0.000000
   0 Cycle Compare FU's:             101 | 0.031657
   GEP Instruction FU's:              96 | 0.031235
   Type Conversion FU's:               7 | 0.004523

   ========= Static FU's ==========================
   Counter FU's:                    0
   Integer Add/Sub FU's:            0
   Integer Mul/Div FU's:            0
   Integer Shifter FU's:            0
   Integer Bitwise FU's:            0
   Floating Point Float Add/Sub:    0
   Floating Point Double Add/Sub:   0
   Floating Point Float Mul/Div:    0
   Floating Point Double Mul/Div:   0
   0 Cycle Compare FU's:            0
   GEP Instruction FU's:            0
   Type Conversion FU's:            0
   Other:                           0

   ========= Pipeline Register Usage =============
   Total Number of Registers:       5641
   Max Register Usage Per Cycle:    135
   Avg Register Usage Per Cycle:    8.090288
   Avg Register Size (Bytes):       5.980606

   ========= Memory Configuration =================
   Cache Bus Ports:                 0
   Shared Cache Size:               0kB
   Local Bus Ports:                 0
   Private SPM Size:                256kB
   Private Read Ports:              0
   Private Write Ports:             0
   Private Read Bus Width:          64
   Private Write Bus Width:         64
       Memory Reads:                0
       Memory Writes:               0
   ========= Power Analysis ======================
   FU Leakage Power:                0.045377 mW 
   FU Dynamic Power:                0.293182 mW 
   FU Total Power:                  0.338559 mW 

   Registers Leakage Power:          0.003521 mW 
   Registers Dynamic Power:          0.015320 mW 
       Register Reads (Bits):        132616
       Register Writes (Bits):       133658
   Registers Total Power:            0.018841 mW

   SPM Leakage Power:               0.099590 mW
   SPM Read Dynamic Power:          13.328677 mW
   SPM Write Dynamic Power:         10.030713 mW
   SPM Total Power:                 23.458980 mW

   Cache Leakage Power:             0.000000 mW
   Cache Read Dynamic Power:        0.000000 mW
   Cache Write Dynamic Power:       0.000000 mW
   Cache Total Power:               0.000000 mW

   Accelerator Power:               0.357400 mW
   Accelerator Power (SPM):         23.816380 mW
   Accelerator Power (Cache):       0.357400 mW

   ========= Area Analysis =======================
   FU Area:                         5472.068359 um^2 (0.005472 mm^2)
   Register Area:                   286.180725 um^2 (0.000286 mm^2)
   SPM Area:                        1894.672457 um^2 (0.001895 mm^2)
   Cache Area:                      0.000000 um^2 (0.000000 mm^2)

   Accelerator Area:                5758.249023 um^2 (0.005758 mm^2)
   Accelerator Area (SPM):          7652.921481 um^2 (0.007653 mm^2)
   Accelerator Area (Cache):        5758.249023 um^2 (0.005758 mm^2)

   ========= SPM Resizing  =======================
   SPM Optimized Leakage Power:     0.003640 mW
   SPM Opt Area:                    97.220725 um^2

666565972500: system.acctest.elem_matrix1_dma: SRC:0x0000000024120020, DST:0x0000000085442a20, LEN:65536
666577652500: system.acctest.elem_matrix1_dma: Transfer completed in 11.68 us
Exiting @ tick 666589004500 because m5_exit instruction encountered
