gem5 Simulator System.  http://gem5.org
gem5 is copyrighted software; use the --copyright option for details.

gem5 compiled May 11 2023 13:12:28
gem5 started Jun  2 2023 10:11:47
gem5 executing on node4x10a.cs.rochester.edu, pid 12423
command line: /u/sgupta45/gem5-SALAM/build/ARM/gem5_bus.opt --debug-flags=HWACC,CommInterface,LLVMInterface,StreamDma,NoncoherentDma,TickTimer,SchedulerStats --outdir=BM_ARM_OUT/comb_pred_3/canny_1_deblur_1_gru_1_harris_0_lstm_0_ELF_MEM_PRED_AVERAGE_10 configs/SALAM/scheduler.py --mem-size=4GB --mem-type=LPDDR5_6400_1x16_BG_BL32 --kernel=/u/sgupta45/gem5-SALAM/benchmarks/scheduler/sw/bin_comb_pred_3/canny_1_deblur_1_gru_1_harris_0_lstm_0_ELF_MEM_PRED_AVERAGE_10.elf --vans-config-path=/u/sgupta45/VANS/config --disk-image=/u/sgupta45/gem5-SALAM/baremetal/common/fake.iso --machine-type=VExpress_GEM5_V1 --dtb-file=none --bare-metal --cpu-type=ex5_LITTLE --cpu-clock=1.6GHz --accpath=/u/sgupta45/gem5-SALAM/benchmarks --caches --cacheline_size=64 --l1d_size=32kB --l1d_assoc=4 --l1i_size=32kB --l1i_assoc=2

info: Standard input is not a terminal, disabling listeners.
Global frequency set at 1000000000000 ticks per second
Cycle Counts Loaded!
Cycle Counts Loaded!
Cycle Counts Loaded!
Cycle Counts Loaded!
Cycle Counts Loaded!
Cycle Counts Loaded!
Cycle Counts Loaded!
Cycle Counts Loaded!
Cycle Counts Loaded!
Cycle Counts Loaded!
Cycle Counts Loaded!
**** REAL SIMULATION ****
3439590625: global: Timer #2 started at tick 3439590625
3440265625: global: Timer #2 stopped at tick 3440265625. Duration: 675000
3442623750: global: Timer #2 started at tick 3442623750
3442716875: global: Timer #2 stopped at tick 3442716875. Duration: 93125
3446533125: global: Timer #2 started at tick 3446533125
3446606875: global: Timer #2 stopped at tick 3446606875. Duration: 73750
3479105875: system.acctest.elem_matrix0_dma: SRC:0x0000000082290040, DST:0x0000000024000020, LEN:65536
3483977375: system.acctest.isp0_dma: SRC:0x000000008210dec0, DST:0x0000000027000020, LEN:16900
3484408125: global: Number of accelerators running = 2
3487739375: system.acctest.isp0_dma: Transfer completed in 3.762 us
3488245625: global: Timer #0 started at tick 3488245625
3488630625: global: Timer #1 started at tick 3488630625
3489520625: global: Timer #1 stopped at tick 3489520625. Duration: 890000
3491645625: global: Timer #0 stopped at tick 3491645625. Duration: 3400000
3491705000: global: Number of accelerators running = 2
3491729875: system.acctest.elem_matrix0_dma: Transfer completed in 12.624 us
3491874375: global: Timer #0 started at tick 3491874375
3491918750: global: Timer #1 started at tick 3491918750
3492312500: global: Timer #1 stopped at tick 3492312500. Duration: 393750
3506830875: system.acctest.elem_matrix0_dma: SRC:0x000000008218fe80, DST:0x0000000024010020, LEN:65536
3507195000: global: Timer #0 stopped at tick 3507195000. Duration: 15320625
3507209375: global: Number of accelerators running = 2
3518779875: system.acctest.elem_matrix0_dma: Transfer completed in 11.949 us
3518860000: global: Timer #0 started at tick 3518860000
3518915625: global: Timer #1 started at tick 3518915625
3519229375: global: Timer #1 stopped at tick 3519229375. Duration: 313750
3521108125: global: Timer #0 stopped at tick 3521108125. Duration: 2248125
3521122500: global: Number of accelerators running = 2
********************************************************************************
system.acctest.isp0.compute
   ========= Performance Analysis =============
   Setup Time:                      0.142921seconds
   Simulation Time:                 462.526seconds
   System Clock:                    1GHz
   Transistor Latency:              1ns
   Runtime:                         34882 cycles
   Runtime:                         34.882 us
   Stalls:                          1 cycles
   Executed Nodes:                  34880 cycles

********************************************************************************
   ========= Performance Analysis =================
   Setup Time:                      1.42921e+08ns
   Simulation Time:                 4.62526e+11ns
   System Clock:                    1GHz
   Transistor Latency:              0ns
   Runtime:                         34882 cycles
   Runtime:                         3.4882e-06 seconds
   Stalls:                          1 cycles
       Load Only:                   0 cycles
       Store Only:                  1 cycles
       Compute Only:                0 cycles
       Compute & Store:             0 cycles
       Load & Store:                0 cycles
       Load & Compute:              0 cycles
       Load & Compute & Store:      0 cycles
   Executed Nodes:                  34880 cycles
       Load Only:                   0 cycles
       Store Only:                  1 cycles
       Compute Only:                3453 cycles
       Compute & Store:             19014 cycles
       Load & Store:                0 cycles
       Load & Compute:              2467 cycles
       Load & Compute & Store:      9945 cycles

   ========= Runtime FU's ========= (Max | Avg) ===
   Counter FU's:                      10 | 0.118075
   Integer Add/Sub FU's:              76 | 0.082082
   Integer Mul/Div FU's:              11 | 0.043888
   Integer Shifter FU's:              42 | 0.055974
   Integer Bitwise FU's:               4 | 0.059443
   Floating Point Float Add/Sub:      53 | 0.116839
   Floating Point Double Add/Sub:      0 | 0.000000
   Floating Point Float Mul/Div:      76 | 0.625626
   Floating Point Double Mul/Div:      0 | 0.000000
   0 Cycle Compare FU's:              85 | 0.664984
   GEP Instruction FU's:              33 | 0.117424
   Type Conversion FU's:             110 | 0.379700

   ========= Static FU's ==========================
   Counter FU's:                    0
   Integer Add/Sub FU's:            0
   Integer Mul/Div FU's:            0
   Integer Shifter FU's:            0
   Integer Bitwise FU's:            0
   Floating Point Float Add/Sub:    0
   Floating Point Double Add/Sub:   0
   Floating Point Float Mul/Div:    0
   Floating Point Double Mul/Div:   0
   0 Cycle Compare FU's:            0
   GEP Instruction FU's:            0
   Type Conversion FU's:            0
   Other:                           0

   ========= Pipeline Register Usage =============
   Total Number of Registers:       1620
   Max Register Usage Per Cycle:    151
   Avg Register Usage Per Cycle:    58.744711
   Avg Register Size (Bytes):       5.073357

   ========= Memory Configuration =================
   Cache Bus Ports:                 0
   Shared Cache Size:               0kB
   Local Bus Ports:                 0
   Private SPM Size:                112kB
   Private Read Ports:              0
   Private Write Ports:             0
   Private Read Bus Width:          64
   Private Write Bus Width:         64
       Memory Reads:                0
       Memory Writes:               0
   ========= Power Analysis ======================
   FU Leakage Power:                1.637787 mW 
   FU Dynamic Power:                9.655087 mW 
   FU Total Power:                  11.292874 mW 

   Registers Leakage Power:          0.021654 mW 
   Registers Dynamic Power:          3.085961 mW 
       Register Reads (Bits):        2049133
       Register Writes (Bits):       2049168
   Registers Total Power:            3.107615 mW

   SPM Leakage Power:               0.061081 mW
   SPM Read Dynamic Power:          11.103730 mW
   SPM Write Dynamic Power:         7.385230 mW
   SPM Total Power:                 18.550041 mW

   Cache Leakage Power:             0.000000 mW
   Cache Read Dynamic Power:        0.000000 mW
   Cache Write Dynamic Power:       0.000000 mW
   Cache Total Power:               0.000000 mW

   Accelerator Power:               14.400490 mW
   Accelerator Power (SPM):         32.950531 mW
   Accelerator Power (Cache):       14.400490 mW

   ========= Area Analysis =======================
   FU Area:                         176023.796875 um^2 (0.176024 mm^2)
   Register Area:                   1760.064941 um^2 (0.001760 mm^2)
   SPM Area:                        2165.394891 um^2 (0.002165 mm^2)
   Cache Area:                      0.000000 um^2 (0.000000 mm^2)

   Accelerator Area:                177783.859375 um^2 (0.177784 mm^2)
   Accelerator Area (SPM):          179949.254266 um^2 (0.179949 mm^2)
   Accelerator Area (Cache):        177783.859375 um^2 (0.177784 mm^2)

   ========= SPM Resizing  =======================
   SPM Optimized Leakage Power:     0.005964 mW
   SPM Opt Area:                    422.108128 um^2

3526053750: global: Timer #0 started at tick 3526053750
3526447500: global: Timer #3 started at tick 3526447500
3526829375: global: Timer #3 stopped at tick 3526829375. Duration: 381875
3527081250: global: Timer #2 started at tick 3527081250
3527769375: global: Timer #2 stopped at tick 3527769375. Duration: 688125
3528525000: global: DAG ID = 1
3528544375: global: Node ID = 0
3528562500: global: Node deadline difference = -230
3528624375: global: Predicted memory time / byte = 0 us/byte
3528642500: global: Predicted memory time = 0 us
3528660625: global: Predicted memory time / byte = 0 us/byte
3528678750: global: Predicted memory time = 0 us
3528696875: global: Predicted memory time / byte = 0.000260059 us/byte
3528758125: global: Predicted memory time = 4 us
3528776250: global: Predicted memory time / byte = 0 us/byte
3528794375: global: Predicted memory time = 0 us
3529975875: system.acctest.grayscale0_dma: SRC:0x0000000027004224, DST:0x0000000025000020, LEN:49152
********************************************************************************
system.acctest.elem_matrix0.compute
   ========= Performance Analysis =============
   Setup Time:                      4.406736seconds
   Simulation Time:                 220.243634seconds
   System Clock:                    1.000000GHz
   Transistor Latency:              1ns
   Runtime:                         10932 cycles
   Runtime:                         10.932000 us
   Stalls:                          0 cycles
   Executed Nodes:                  10931 cycles

********************************************************************************
   ========= Performance Analysis =================
   Setup Time:                      4406735724.000000ns
   Simulation Time:                 220243633639.000000ns
   System Clock:                    1.000000GHz
   Transistor Latency:              0ns
   Runtime:                         10932 cycles
   Runtime:                         0.000001 seconds
   Stalls:                          0 cycles
       Load Only:                   0 cycles
       Store Only:                  0 cycles
       Compute Only:                0 cycles
       Compute & Store:             0 cycles
       Load & Store:                0 cycles
       Load & Compute:              0 cycles
       Load & Compute & Store:      0 cycles
   Executed Nodes:                  10931 cycles
       Load Only:                   0 cycles
       Store Only:                  5 cycles
       Compute Only:                1 cycles
       Compute & Store:             21 cycles
       Load & Store:                0 cycles
       Load & Compute:              7 cycles
       Load & Compute & Store:      10897 cycles

   ========= Runtime FU's ========= (Max | Avg) ===
   Counter FU's:                      32 | 0.046838
   Integer Add/Sub FU's:               0 | 0.000000
   Integer Mul/Div FU's:               0 | 0.000000
   Integer Shifter FU's:               0 | 0.000000
   Integer Bitwise FU's:               1 | 0.000091
   Floating Point Float Add/Sub:      34 | 0.044252
   Floating Point Double Add/Sub:      0 | 0.000000
   Floating Point Float Mul/Div:       0 | 0.000000
   Floating Point Double Mul/Div:      0 | 0.000000
   0 Cycle Compare FU's:             102 | 0.046974
   GEP Instruction FU's:              96 | 0.046835
   Type Conversion FU's:               7 | 0.006782

   ========= Static FU's ==========================
   Counter FU's:                    0
   Integer Add/Sub FU's:            0
   Integer Mul/Div FU's:            0
   Integer Shifter FU's:            0
   Integer Bitwise FU's:            0
   Floating Point Float Add/Sub:    0
   Floating Point Double Add/Sub:   0
   Floating Point Float Mul/Div:    0
   Floating Point Double Mul/Div:   0
   0 Cycle Compare FU's:            0
   GEP Instruction FU's:            0
   Type Conversion FU's:            0
   Other:                           0

   ========= Pipeline Register Usage =============
   Total Number of Registers:       5641
   Max Register Usage Per Cycle:    138
   Avg Register Usage Per Cycle:    12.130992
   Avg Register Size (Bytes):       5.980606

   ========= Memory Configuration =================
   Cache Bus Ports:                 0
   Shared Cache Size:               0kB
   Local Bus Ports:                 0
   Private SPM Size:                256kB
   Private Read Ports:              0
   Private Write Ports:             0
   Private Read Bus Width:          64
   Private Write Bus Width:         64
       Memory Reads:                0
       Memory Writes:               0
   ========= Power Analysis ======================
   FU Leakage Power:                0.519269 mW 
   FU Dynamic Power:                0.154621 mW 
   FU Total Power:                  0.673890 mW 

   Registers Leakage Power:          0.005281 mW 
   Registers Dynamic Power:          0.015326 mW 
       Register Reads (Bits):        132616
       Register Writes (Bits):       133658
   Registers Total Power:            0.020607 mW

   SPM Leakage Power:               0.104100 mW
   SPM Read Dynamic Power:          1.997266 mW
   SPM Write Dynamic Power:         0.953321 mW
   SPM Total Power:                 3.054688 mW

   Cache Leakage Power:             0.000000 mW
   Cache Read Dynamic Power:        0.000000 mW
   Cache Write Dynamic Power:       0.000000 mW
   Cache Total Power:               0.000000 mW

   Accelerator Power:               0.694497 mW
   Accelerator Power (SPM):         3.749184 mW
   Accelerator Power (Cache):       0.694497 mW

   ========= Area Analysis =======================
   FU Area:                         70212.562500 um^2 (0.070213 mm^2)
   Register Area:                   429.271088 um^2 (0.000429 mm^2)
   SPM Area:                        2177.365505 um^2 (0.002177 mm^2)
   Cache Area:                      0.000000 um^2 (0.000000 mm^2)

   Accelerator Area:                70641.835938 um^2 (0.070642 mm^2)
   Accelerator Area (SPM):          72819.201442 um^2 (0.072819 mm^2)
   Accelerator Area (Cache):        70641.835938 um^2 (0.070642 mm^2)

   ========= SPM Resizing  =======================
   SPM Optimized Leakage Power:     0.004248 mW
   SPM Opt Area:                    178.524902 um^2

3534615000: system.acctest.isp0_dma: SRC:0x0000000082018900, DST:0x0000000027000020, LEN:16900
3534846250: global: Timer #0 stopped at tick 3534846250. Duration: 8792500
3534860625: global: Number of accelerators running = 3
3534976250: global: Timer #0 started at tick 3534976250
3535275000: global: Timer #3 started at tick 3535275000
3535529375: global: Timer #3 stopped at tick 3535529375. Duration: 254375
3535567500: global: Timer #3 started at tick 3535567500
3535853750: global: Timer #3 stopped at tick 3535853750. Duration: 286250
3535911250: global: Timer #2 started at tick 3535911250
3536077500: global: Timer #2 stopped at tick 3536077500. Duration: 166250
3536150625: global: Timer #2 started at tick 3536150625
3536311250: global: Timer #2 stopped at tick 3536311250. Duration: 160625
3537960000: system.acctest.isp0_dma: Transfer completed in 3.345 us
3539535875: system.acctest.grayscale0_dma: Transfer completed in 9.56 us
3549799500: system.acctest.elem_matrix0_dma: SRC:0x0000000024020020, DST:0x000000008219fe80, LEN:65536
3550299375: global: Timer #0 stopped at tick 3550299375. Duration: 15323125
3550313750: global: Number of accelerators running = 3
3550435000: global: Timer #0 started at tick 3550435000
3550477500: global: Timer #1 started at tick 3550477500
3550771875: global: Timer #1 stopped at tick 3550771875. Duration: 294375
3551897500: global: Timer #0 stopped at tick 3551897500. Duration: 1462500
3551911875: global: Number of accelerators running = 3
3552038750: global: Timer #0 started at tick 3552038750
3552087500: global: Timer #1 started at tick 3552087500
3552365625: global: Timer #1 stopped at tick 3552365625. Duration: 278125
3553773750: global: Timer #0 stopped at tick 3553773750. Duration: 1735000
3553788125: global: Number of accelerators running = 3
3556093500: system.acctest.elem_matrix0_dma: Transfer completed in 6.294 us
3556178125: global: Timer #0 started at tick 3556178125
3556452500: global: Timer #1 started at tick 3556452500
3556979375: global: Timer #1 stopped at tick 3556979375. Duration: 526875
3557380625: global: DAG ID = 2
3557443125: global: Node ID = 0
3557514375: global: Node deadline difference = -2227
3557534375: global: Predicted memory time / byte = 0 us/byte
3557552500: global: Predicted memory time = 0 us
3557570625: global: Predicted memory time / byte = 0 us/byte
3557588750: global: Predicted memory time = 0 us
3557606875: global: Predicted memory time / byte = 0.000187523 us/byte
3557625000: global: Predicted memory time = 23 us
3557643125: global: Predicted memory time / byte = 9.80377e-05 us/byte
3557661250: global: Predicted memory time = 6 us
********************************************************************************
system.acctest.grayscale0.compute
   ========= Performance Analysis =============
   Setup Time:                      0.010050seconds
   Simulation Time:                 300.416169seconds
   System Clock:                    1.000000GHz
   Transistor Latency:              1ns
   Runtime:                         10263 cycles
   Runtime:                         10.263000 us
   Stalls:                          1 cycles
   Executed Nodes:                  10261 cycles

********************************************************************************
   ========= Performance Analysis =================
   Setup Time:                      10049745.000000ns
   Simulation Time:                 300416168683.000000ns
   System Clock:                    1.000000GHz
   Transistor Latency:              0ns
   Runtime:                         10263 cycles
   Runtime:                         0.000001 seconds
   Stalls:                          1 cycles
       Load Only:                   0 cycles
       Store Only:                  1 cycles
       Compute Only:                0 cycles
       Compute & Store:             0 cycles
       Load & Store:                0 cycles
       Load & Compute:              0 cycles
       Load & Compute & Store:      0 cycles
   Executed Nodes:                  10261 cycles
       Load Only:                   0 cycles
       Store Only:                  1 cycles
       Compute Only:                88 cycles
       Compute & Store:             344 cycles
       Load & Store:                0 cycles
       Load & Compute:              1981 cycles
       Load & Compute & Store:      7847 cycles

   ========= Runtime FU's ========= (Max | Avg) ===
   Counter FU's:                      24 | 0.199556
   Integer Add/Sub FU's:               0 | 0.000000
   Integer Mul/Div FU's:               8 | 0.199552
   Integer Shifter FU's:               0 | 0.000000
   Integer Bitwise FU's:               1 | 0.000097
   Floating Point Float Add/Sub:      49 | 0.114264
   Floating Point Double Add/Sub:      0 | 0.000000
   Floating Point Float Mul/Div:      42 | 0.114129
   Floating Point Double Mul/Div:      0 | 0.000000
   0 Cycle Compare FU's:               9 | 0.066626
   GEP Instruction FU's:              36 | 0.177452
   Type Conversion FU's:              76 | 0.401969

   ========= Static FU's ==========================
   Counter FU's:                    0
   Integer Add/Sub FU's:            0
   Integer Mul/Div FU's:            0
   Integer Shifter FU's:            0
   Integer Bitwise FU's:            0
   Floating Point Float Add/Sub:    0
   Floating Point Double Add/Sub:   0
   Floating Point Float Mul/Div:    0
   Floating Point Double Mul/Div:   0
   0 Cycle Compare FU's:            0
   GEP Instruction FU's:            0
   Type Conversion FU's:            0
   Other:                           0

   ========= Pipeline Register Usage =============
   Total Number of Registers:       235
   Max Register Usage Per Cycle:    90
   Avg Register Usage Per Cycle:    33.924291
   Avg Register Size (Bytes):       5.841147

   ========= Memory Configuration =================
   Cache Bus Ports:                 0
   Shared Cache Size:               0kB
   Local Bus Ports:                 0
   Private SPM Size:                176kB
   Private Read Ports:              0
   Private Write Ports:             0
   Private Read Bus Width:          64
   Private Write Bus Width:         64
       Memory Reads:                0
       Memory Writes:               0
   ========= Power Analysis ======================
   FU Leakage Power:                1.178269 mW 
   FU Dynamic Power:                0.617392 mW 
   FU Total Power:                  1.795662 mW 

   Registers Leakage Power:          0.014185 mW 
   Registers Dynamic Power:          0.101057 mW 
       Register Reads (Bits):        348165
       Register Writes (Bits):       348168
   Registers Total Power:            0.115242 mW

   SPM Leakage Power:               0.089881 mW
   SPM Read Dynamic Power:          6.997296 mW
   SPM Write Dynamic Power:         2.062375 mW
   SPM Total Power:                 9.149552 mW

   Cache Leakage Power:             0.000000 mW
   Cache Read Dynamic Power:        0.000000 mW
   Cache Write Dynamic Power:       0.000000 mW
   Cache Total Power:               0.000000 mW

   Accelerator Power:               1.910904 mW
   Accelerator Power (SPM):         11.060456 mW
   Accelerator Power (Cache):       1.910904 mW

   ========= Area Analysis =======================
   FU Area:                         143348.187500 um^2 (0.143348 mm^2)
   Register Area:                   1152.968140 um^2 (0.001153 mm^2)
   SPM Area:                        3573.642862 um^2 (0.003574 mm^2)
   Cache Area:                      0.000000 um^2 (0.000000 mm^2)

   Accelerator Area:                144501.156250 um^2 (0.144501 mm^2)
   Accelerator Area (SPM):          148074.799112 um^2 (0.148075 mm^2)
   Accelerator Area (Cache):        144501.156250 um^2 (0.144501 mm^2)

   ========= SPM Resizing  =======================
   SPM Optimized Leakage Power:     0.003633 mW
   SPM Opt Area:                    364.024374 um^2

3571767375: system.acctest.elem_matrix0_dma: SRC:0x000000008214fe80, DST:0x0000000024000020, LEN:65536
3571992500: global: Timer #0 stopped at tick 3571992500. Duration: 15814375
3572006875: global: Number of accelerators running = 3
3572121250: global: Timer #0 started at tick 3572121250
3572300000: global: Timer #3 started at tick 3572300000
3572539375: global: Timer #3 stopped at tick 3572539375. Duration: 239375
3572738750: global: Timer #2 started at tick 3572738750
3572915000: global: Timer #2 stopped at tick 3572915000. Duration: 176250
3583756375: system.acctest.elem_matrix0_dma: Transfer completed in 11.989 us
3586418750: system.acctest.grayscale0_dma: SRC:0x000000002500c020, DST:0x000000008211e280, LEN:65536
********************************************************************************
system.acctest.isp0.compute
   ========= Performance Analysis =============
   Setup Time:                      0.657850seconds
   Simulation Time:                 729.321859seconds
   System Clock:                    1.000000GHz
   Transistor Latency:              1ns
   Runtime:                         34882 cycles
   Runtime:                         34.882000 us
   Stalls:                          1 cycles
   Executed Nodes:                  34880 cycles

********************************************************************************
   ========= Performance Analysis =================
   Setup Time:                      657849511.000000ns
   Simulation Time:                 729321858750.000000ns
   System Clock:                    1.000000GHz
   Transistor Latency:              0ns
   Runtime:                         34882 cycles
   Runtime:                         0.000003 seconds
   Stalls:                          1 cycles
       Load Only:                   0 cycles
       Store Only:                  1 cycles
       Compute Only:                0 cycles
       Compute & Store:             0 cycles
       Load & Store:                0 cycles
       Load & Compute:              0 cycles
       Load & Compute & Store:      0 cycles
   Executed Nodes:                  34880 cycles
       Load Only:                   0 cycles
       Store Only:                  1 cycles
       Compute Only:                3453 cycles
       Compute & Store:             19014 cycles
       Load & Store:                0 cycles
       Load & Compute:              2467 cycles
       Load & Compute & Store:      9945 cycles

   ========= Runtime FU's ========= (Max | Avg) ===
   Counter FU's:                      10 | 0.118075
   Integer Add/Sub FU's:              76 | 0.082082
   Integer Mul/Div FU's:              11 | 0.043888
   Integer Shifter FU's:              42 | 0.055974
   Integer Bitwise FU's:               4 | 0.059443
   Floating Point Float Add/Sub:      53 | 0.116839
   Floating Point Double Add/Sub:      0 | 0.000000
   Floating Point Float Mul/Div:      76 | 0.625626
   Floating Point Double Mul/Div:      0 | 0.000000
   0 Cycle Compare FU's:              85 | 0.664984
   GEP Instruction FU's:              33 | 0.117424
   Type Conversion FU's:             110 | 0.379700

   ========= Static FU's ==========================
   Counter FU's:                    0
   Integer Add/Sub FU's:            0
   Integer Mul/Div FU's:            0
   Integer Shifter FU's:            0
   Integer Bitwise FU's:            0
   Floating Point Float Add/Sub:    0
   Floating Point Double Add/Sub:   0
   Floating Point Float Mul/Div:    0
   Floating Point Double Mul/Div:   0
   0 Cycle Compare FU's:            0
   GEP Instruction FU's:            0
   Type Conversion FU's:            0
   Other:                           0

   ========= Pipeline Register Usage =============
   Total Number of Registers:       1620
   Max Register Usage Per Cycle:    151
   Avg Register Usage Per Cycle:    58.744711
   Avg Register Size (Bytes):       5.073357

   ========= Memory Configuration =================
   Cache Bus Ports:                 0
   Shared Cache Size:               0kB
   Local Bus Ports:                 0
   Private SPM Size:                112kB
   Private Read Ports:              0
   Private Write Ports:             0
   Private Read Bus Width:          64
   Private Write Bus Width:         64
       Memory Reads:                0
       Memory Writes:               0
   ========= Power Analysis ======================
   FU Leakage Power:                1.637787 mW 
   FU Dynamic Power:                9.655087 mW 
   FU Total Power:                  11.292874 mW 

   Registers Leakage Power:          0.021654 mW 
   Registers Dynamic Power:          3.085961 mW 
       Register Reads (Bits):        2049133
       Register Writes (Bits):       2049168
   Registers Total Power:            3.107615 mW

   SPM Leakage Power:               0.061081 mW
   SPM Read Dynamic Power:          15.102444 mW
   SPM Write Dynamic Power:         10.618341 mW
   SPM Total Power:                 25.781867 mW

   Cache Leakage Power:             0.000000 mW
   Cache Read Dynamic Power:        0.000000 mW
   Cache Write Dynamic Power:       0.000000 mW
   Cache Total Power:               0.000000 mW

   Accelerator Power:               14.400490 mW
   Accelerator Power (SPM):         40.182357 mW
   Accelerator Power (Cache):       14.400490 mW

   ========= Area Analysis =======================
   FU Area:                         176023.796875 um^2 (0.176024 mm^2)
   Register Area:                   1760.064941 um^2 (0.001760 mm^2)
   SPM Area:                        2165.394891 um^2 (0.002165 mm^2)
   Cache Area:                      0.000000 um^2 (0.000000 mm^2)

   Accelerator Area:                177783.859375 um^2 (0.177784 mm^2)
   Accelerator Area (SPM):          179949.254266 um^2 (0.179949 mm^2)
   Accelerator Area (Cache):        177783.859375 um^2 (0.177784 mm^2)

   ========= SPM Resizing  =======================
   SPM Optimized Leakage Power:     0.005964 mW
   SPM Opt Area:                    422.108128 um^2

3588085000: system.acctest.convolution0_dma: SRC:0x000000002500c020, DST:0x0000000022000020, LEN:65536
3588529375: global: Timer #0 stopped at tick 3588529375. Duration: 16408125
3588543750: global: Number of accelerators running = 4
3588658125: global: Timer #0 started at tick 3588658125
3588709375: global: Timer #1 started at tick 3588709375
3589021250: global: Timer #1 stopped at tick 3589021250. Duration: 311875
3590817500: global: Timer #0 stopped at tick 3590817500. Duration: 2159375
3590831875: global: Number of accelerators running = 4
3590948125: global: Timer #0 started at tick 3590948125
3591270625: global: Timer #3 started at tick 3591270625
3591438750: global: Timer #3 stopped at tick 3591438750. Duration: 168125
3591496250: global: Timer #2 started at tick 3591496250
3591585625: global: Timer #2 stopped at tick 3591585625. Duration: 89375
3597747750: system.acctest.grayscale0_dma: Transfer completed in 11.329 us
********************************************************************************
system.acctest.elem_matrix0.compute
   ========= Performance Analysis =============
   Setup Time:                      9.279865seconds
   Simulation Time:                 153.889081seconds
   System Clock:                    1.000000GHz
   Transistor Latency:              1ns
   Runtime:                         10932 cycles
   Runtime:                         10.932000 us
   Stalls:                          1 cycles
   Executed Nodes:                  10930 cycles

********************************************************************************
   ========= Performance Analysis =================
   Setup Time:                      9279864738.000000ns
   Simulation Time:                 153889081235.000000ns
   System Clock:                    1.000000GHz
   Transistor Latency:              0ns
   Runtime:                         10932 cycles
   Runtime:                         0.000001 seconds
   Stalls:                          1 cycles
       Load Only:                   0 cycles
       Store Only:                  1 cycles
       Compute Only:                0 cycles
       Compute & Store:             0 cycles
       Load & Store:                0 cycles
       Load & Compute:              0 cycles
       Load & Compute & Store:      0 cycles
   Executed Nodes:                  10930 cycles
       Load Only:                   0 cycles
       Store Only:                  4 cycles
       Compute Only:                1 cycles
       Compute & Store:             21 cycles
       Load & Store:                0 cycles
       Load & Compute:              6 cycles
       Load & Compute & Store:      10898 cycles

   ========= Runtime FU's ========= (Max | Avg) ===
   Counter FU's:                      32 | 0.046838
   Integer Add/Sub FU's:               0 | 0.000000
   Integer Mul/Div FU's:               0 | 0.000000
   Integer Shifter FU's:               0 | 0.000000
   Integer Bitwise FU's:               1 | 0.000091
   Floating Point Float Add/Sub:       0 | 0.000000
   Floating Point Double Add/Sub:      0 | 0.000000
   Floating Point Float Mul/Div:      34 | 0.044252
   Floating Point Double Mul/Div:      0 | 0.000000
   0 Cycle Compare FU's:             102 | 0.046945
   GEP Instruction FU's:              96 | 0.046835
   Type Conversion FU's:               7 | 0.006782

   ========= Static FU's ==========================
   Counter FU's:                    0
   Integer Add/Sub FU's:            0
   Integer Mul/Div FU's:            0
   Integer Shifter FU's:            0
   Integer Bitwise FU's:            0
   Floating Point Float Add/Sub:    0
   Floating Point Double Add/Sub:   0
   Floating Point Float Mul/Div:    0
   Floating Point Double Mul/Div:   0
   0 Cycle Compare FU's:            0
   GEP Instruction FU's:            0
   Type Conversion FU's:            0
   Other:                           0

   ========= Pipeline Register Usage =============
   Total Number of Registers:       5641
   Max Register Usage Per Cycle:    137
   Avg Register Usage Per Cycle:    12.130992
   Avg Register Size (Bytes):       5.980606

   ========= Memory Configuration =================
   Cache Bus Ports:                 0
   Shared Cache Size:               0kB
   Local Bus Ports:                 0
   Private SPM Size:                256kB
   Private Read Ports:              0
   Private Write Ports:             0
   Private Read Bus Width:          64
   Private Write Bus Width:         64
       Memory Reads:                0
       Memory Writes:               0
   ========= Power Analysis ======================
   FU Leakage Power:                0.045377 mW 
   FU Dynamic Power:                0.142576 mW 
   FU Total Power:                  0.187953 mW 

   Registers Leakage Power:          0.005281 mW 
   Registers Dynamic Power:          0.015326 mW 
       Register Reads (Bits):        132616
       Register Writes (Bits):       133658
   Registers Total Power:            0.020607 mW

   SPM Leakage Power:               0.104100 mW
   SPM Read Dynamic Power:          2.785289 mW
   SPM Write Dynamic Power:         2.044305 mW
   SPM Total Power:                 4.933694 mW

   Cache Leakage Power:             0.000000 mW
   Cache Read Dynamic Power:        0.000000 mW
   Cache Write Dynamic Power:       0.000000 mW
   Cache Total Power:               0.000000 mW

   Accelerator Power:               0.208559 mW
   Accelerator Power (SPM):         5.142254 mW
   Accelerator Power (Cache):       0.208559 mW

   ========= Area Analysis =======================
   FU Area:                         5472.068359 um^2 (0.005472 mm^2)
   Register Area:                   429.271088 um^2 (0.000429 mm^2)
   SPM Area:                        2177.365505 um^2 (0.002177 mm^2)
   Cache Area:                      0.000000 um^2 (0.000000 mm^2)

   Accelerator Area:                5901.339355 um^2 (0.005901 mm^2)
   Accelerator Area (SPM):          8078.704860 um^2 (0.008079 mm^2)
   Accelerator Area (Cache):        5901.339355 um^2 (0.005901 mm^2)

   ========= SPM Resizing  =======================
   SPM Optimized Leakage Power:     0.004248 mW
   SPM Opt Area:                    178.524902 um^2

3601570000: system.acctest.convolution0_dma: Transfer completed in 13.485 us
3602073750: system.acctest.isp0_dma: SRC:0x0000000027010224, DST:0x000000008201cb40, LEN:49152
3602475625: global: Timer #0 stopped at tick 3602475625. Duration: 11527500
3602490000: global: Number of accelerators running = 4
3602612500: global: Timer #0 started at tick 3602612500
3602660000: global: Timer #1 started at tick 3602660000
3602948125: global: Timer #1 stopped at tick 3602948125. Duration: 288125
3603281250: global: DAG ID = 1
3603295000: global: Node ID = 1
3603314375: global: Node deadline difference = -192
3603326875: global: Predicted memory time / byte = 0.000195807 us/byte
3603339375: global: Predicted memory time = 22.4567 us
3603351875: global: Predicted memory time / byte = 0.000195807 us/byte
3603364375: global: Predicted memory time = 22.4567 us
3603376875: global: Predicted memory time / byte = 0.000446167 us/byte
3603389375: global: Predicted memory time = 21 us
3603401875: global: Predicted memory time / byte = 0.000245621 us/byte
3603414375: global: Predicted memory time = 16 us
3607543750: system.acctest.isp0_dma: Transfer completed in 5.47 us
3614100875: system.acctest.grayscale0_dma: SRC:0x000000008201cb40, DST:0x0000000025000020, LEN:49152
3614311875: global: Timer #0 stopped at tick 3614311875. Duration: 11699375
3614326250: global: Number of accelerators running = 4
3614441875: global: Timer #0 started at tick 3614441875
3614700625: global: Timer #3 started at tick 3614700625
3614868125: global: Timer #3 stopped at tick 3614868125. Duration: 167500
3614918125: global: Timer #2 started at tick 3614918125
3615046250: global: Timer #2 stopped at tick 3615046250. Duration: 128125
3615413750: global: DAG ID = 2
3615427500: global: Node ID = 5
3615447500: global: Node deadline difference = -2226
3615460000: global: Predicted memory time / byte = 0.000195807 us/byte
3615472500: global: Predicted memory time = 38.4973 us
3615485000: global: Predicted memory time / byte = 0.000261361 us/byte
3615497500: global: Predicted memory time = 34.2571 us
3615510000: global: Predicted memory time / byte = 0.000256485 us/byte
3615522500: global: Predicted memory time = 16 us
3615535000: global: Predicted memory time / byte = 0 us/byte
3615547500: global: Predicted memory time = 0 us
3623221875: system.acctest.grayscale0_dma: Transfer completed in 9.121 us
3629054500: system.acctest.elem_matrix0_dma: SRC:0x000000008215fe80, DST:0x0000000024000020, LEN:65536
3629280625: global: Timer #0 stopped at tick 3629280625. Duration: 14838750
3629295000: global: Number of accelerators running = 4
3629421875: global: Timer #0 started at tick 3629421875
3629470625: global: Timer #1 started at tick 3629470625
3629748125: global: Timer #1 stopped at tick 3629748125. Duration: 277500
3631254500: system.acctest.convolution0_dma: SRC:0x00000000820cdc00, DST:0x0000000022030020, LEN:100
3631381500: system.acctest.convolution0_dma: Transfer completed in 0.127 us
3631509375: global: Timer #0 stopped at tick 3631509375. Duration: 2087500
3631523750: global: Number of accelerators running = 4
3631643750: global: Timer #0 started at tick 3631643750
3631691250: global: Timer #1 started at tick 3631691250
3631973125: global: Timer #1 stopped at tick 3631973125. Duration: 281875
3632350625: global: DAG ID = 0
3632364375: global: Node ID = 0
3632383750: global: Node deadline difference = -13395
3632396250: global: Predicted memory time / byte = 0 us/byte
3632408750: global: Predicted memory time = 0 us
3632421250: global: Predicted memory time / byte = 0.000195807 us/byte
3632433750: global: Predicted memory time = 12.9335 us
3632446250: global: Predicted memory time / byte = 0.000931183 us/byte
3632458750: global: Predicted memory time = 15 us
3632471250: global: Predicted memory time / byte = 0.000599569 us/byte
3632483750: global: Predicted memory time = 29 us
3632594375: global: Timer #0 stopped at tick 3632594375. Duration: 950625
3632608750: global: Number of accelerators running = 3
3632732500: global: Timer #0 started at tick 3632732500
3632775000: global: Timer #1 started at tick 3632775000
3633215000: global: Timer #1 stopped at tick 3633215000. Duration: 440000
3634158125: global: Timer #0 stopped at tick 3634158125. Duration: 1425625
3634172500: global: Number of accelerators running = 3
3634296250: global: Timer #0 started at tick 3634296250
3635681875: global: Timer #0 stopped at tick 3635681875. Duration: 1385625
3635696250: global: Number of accelerators running = 3
3641049500: system.acctest.elem_matrix0_dma: Transfer completed in 11.995 us
3641133750: global: Timer #0 started at tick 3641133750
3641185000: global: Timer #1 started at tick 3641185000
3641544375: global: Timer #1 stopped at tick 3641544375. Duration: 359375
3643138750: global: Timer #0 stopped at tick 3643138750. Duration: 2005000
3643153125: global: Number of accelerators running = 3
********************************************************************************
system.acctest.grayscale0.compute
   ========= Performance Analysis =============
   Setup Time:                      0.008962seconds
   Simulation Time:                 194.111736seconds
   System Clock:                    1.000000GHz
   Transistor Latency:              1ns
   Runtime:                         10263 cycles
   Runtime:                         10.263000 us
   Stalls:                          1 cycles
   Executed Nodes:                  10261 cycles

********************************************************************************
   ========= Performance Analysis =================
   Setup Time:                      8962385.000000ns
   Simulation Time:                 194111736304.000000ns
   System Clock:                    1.000000GHz
   Transistor Latency:              0ns
   Runtime:                         10263 cycles
   Runtime:                         0.000001 seconds
   Stalls:                          1 cycles
       Load Only:                   0 cycles
       Store Only:                  1 cycles
       Compute Only:                0 cycles
       Compute & Store:             0 cycles
       Load & Store:                0 cycles
       Load & Compute:              0 cycles
       Load & Compute & Store:      0 cycles
   Executed Nodes:                  10261 cycles
       Load Only:                   0 cycles
       Store Only:                  1 cycles
       Compute Only:                88 cycles
       Compute & Store:             344 cycles
       Load & Store:                0 cycles
       Load & Compute:              1981 cycles
       Load & Compute & Store:      7847 cycles

   ========= Runtime FU's ========= (Max | Avg) ===
   Counter FU's:                      24 | 0.199556
   Integer Add/Sub FU's:               0 | 0.000000
   Integer Mul/Div FU's:               8 | 0.199552
   Integer Shifter FU's:               0 | 0.000000
   Integer Bitwise FU's:               1 | 0.000097
   Floating Point Float Add/Sub:      49 | 0.114264
   Floating Point Double Add/Sub:      0 | 0.000000
   Floating Point Float Mul/Div:      42 | 0.114129
   Floating Point Double Mul/Div:      0 | 0.000000
   0 Cycle Compare FU's:               9 | 0.066626
   GEP Instruction FU's:              36 | 0.177452
   Type Conversion FU's:              76 | 0.401969

   ========= Static FU's ==========================
   Counter FU's:                    0
   Integer Add/Sub FU's:            0
   Integer Mul/Div FU's:            0
   Integer Shifter FU's:            0
   Integer Bitwise FU's:            0
   Floating Point Float Add/Sub:    0
   Floating Point Double Add/Sub:   0
   Floating Point Float Mul/Div:    0
   Floating Point Double Mul/Div:   0
   0 Cycle Compare FU's:            0
   GEP Instruction FU's:            0
   Type Conversion FU's:            0
   Other:                           0

   ========= Pipeline Register Usage =============
   Total Number of Registers:       235
   Max Register Usage Per Cycle:    90
   Avg Register Usage Per Cycle:    33.924291
   Avg Register Size (Bytes):       5.841147

   ========= Memory Configuration =================
   Cache Bus Ports:                 0
   Shared Cache Size:               0kB
   Local Bus Ports:                 0
   Private SPM Size:                176kB
   Private Read Ports:              0
   Private Write Ports:             0
   Private Read Bus Width:          64
   Private Write Bus Width:         64
       Memory Reads:                0
       Memory Writes:               0
   ========= Power Analysis ======================
   FU Leakage Power:                1.178269 mW 
   FU Dynamic Power:                0.617392 mW 
   FU Total Power:                  1.795662 mW 

   Registers Leakage Power:          0.014185 mW 
   Registers Dynamic Power:          0.101057 mW 
       Register Reads (Bits):        348165
       Register Writes (Bits):       348168
   Registers Total Power:            0.115242 mW

   SPM Leakage Power:               0.089881 mW
   SPM Read Dynamic Power:          10.232207 mW
   SPM Write Dynamic Power:         5.980668 mW
   SPM Total Power:                 16.302756 mW

   Cache Leakage Power:             0.000000 mW
   Cache Read Dynamic Power:        0.000000 mW
   Cache Write Dynamic Power:       0.000000 mW
   Cache Total Power:               0.000000 mW

   Accelerator Power:               1.910904 mW
   Accelerator Power (SPM):         18.213660 mW
   Accelerator Power (Cache):       1.910904 mW

   ========= Area Analysis =======================
   FU Area:                         143348.187500 um^2 (0.143348 mm^2)
   Register Area:                   1152.968140 um^2 (0.001153 mm^2)
   SPM Area:                        3573.642862 um^2 (0.003574 mm^2)
   Cache Area:                      0.000000 um^2 (0.000000 mm^2)

   Accelerator Area:                144501.156250 um^2 (0.144501 mm^2)
   Accelerator Area (SPM):          148074.799112 um^2 (0.148075 mm^2)
   Accelerator Area (Cache):        144501.156250 um^2 (0.144501 mm^2)

   ========= SPM Resizing  =======================
   SPM Optimized Leakage Power:     0.003633 mW
   SPM Opt Area:                    364.024374 um^2

3644288750: global: Timer #0 started at tick 3644288750
3644609375: global: Timer #3 started at tick 3644609375
3644818750: global: Timer #3 stopped at tick 3644818750. Duration: 209375
3644868750: global: Timer #2 started at tick 3644868750
3644945000: global: Timer #2 stopped at tick 3644945000. Duration: 76250
********************************************************************************
system.acctest.elem_matrix0.compute
   ========= Performance Analysis =============
   Setup Time:                      3.344171seconds
   Simulation Time:                 182.455916seconds
   System Clock:                    1.000000GHz
   Transistor Latency:              1ns
   Runtime:                         10932 cycles
   Runtime:                         10.932000 us
   Stalls:                          0 cycles
   Executed Nodes:                  10931 cycles

********************************************************************************
   ========= Performance Analysis =================
   Setup Time:                      3344171020.000000ns
   Simulation Time:                 182455915842.000000ns
   System Clock:                    1.000000GHz
   Transistor Latency:              0ns
   Runtime:                         10932 cycles
   Runtime:                         0.000001 seconds
   Stalls:                          0 cycles
       Load Only:                   0 cycles
       Store Only:                  0 cycles
       Compute Only:                0 cycles
       Compute & Store:             0 cycles
       Load & Store:                0 cycles
       Load & Compute:              0 cycles
       Load & Compute & Store:      0 cycles
   Executed Nodes:                  10931 cycles
       Load Only:                   0 cycles
       Store Only:                  5 cycles
       Compute Only:                1 cycles
       Compute & Store:             21 cycles
       Load & Store:                0 cycles
       Load & Compute:              7 cycles
       Load & Compute & Store:      10897 cycles

   ========= Runtime FU's ========= (Max | Avg) ===
   Counter FU's:                      32 | 0.046838
   Integer Add/Sub FU's:               0 | 0.000000
   Integer Mul/Div FU's:               0 | 0.000000
   Integer Shifter FU's:               0 | 0.000000
   Integer Bitwise FU's:               1 | 0.000091
   Floating Point Float Add/Sub:      34 | 0.044252
   Floating Point Double Add/Sub:      0 | 0.000000
   Floating Point Float Mul/Div:       0 | 0.000000
   Floating Point Double Mul/Div:      0 | 0.000000
   0 Cycle Compare FU's:             102 | 0.046974
   GEP Instruction FU's:              96 | 0.046835
   Type Conversion FU's:               7 | 0.006782

   ========= Static FU's ==========================
   Counter FU's:                    0
   Integer Add/Sub FU's:            0
   Integer Mul/Div FU's:            0
   Integer Shifter FU's:            0
   Integer Bitwise FU's:            0
   Floating Point Float Add/Sub:    0
   Floating Point Double Add/Sub:   0
   Floating Point Float Mul/Div:    0
   Floating Point Double Mul/Div:   0
   0 Cycle Compare FU's:            0
   GEP Instruction FU's:            0
   Type Conversion FU's:            0
   Other:                           0

   ========= Pipeline Register Usage =============
   Total Number of Registers:       5641
   Max Register Usage Per Cycle:    138
   Avg Register Usage Per Cycle:    12.130992
   Avg Register Size (Bytes):       5.980606

   ========= Memory Configuration =================
   Cache Bus Ports:                 0
   Shared Cache Size:               0kB
   Local Bus Ports:                 0
   Private SPM Size:                256kB
   Private Read Ports:              0
   Private Write Ports:             0
   Private Read Bus Width:          64
   Private Write Bus Width:         64
       Memory Reads:                0
       Memory Writes:               0
   ========= Power Analysis ======================
   FU Leakage Power:                0.519269 mW 
   FU Dynamic Power:                0.154621 mW 
   FU Total Power:                  0.673890 mW 

   Registers Leakage Power:          0.005281 mW 
   Registers Dynamic Power:          0.015326 mW 
       Register Reads (Bits):        132616
       Register Writes (Bits):       133658
   Registers Total Power:            0.020607 mW

   SPM Leakage Power:               0.104100 mW
   SPM Read Dynamic Power:          3.776796 mW
   SPM Write Dynamic Power:         2.457440 mW
   SPM Total Power:                 6.338336 mW

   Cache Leakage Power:             0.000000 mW
   Cache Read Dynamic Power:        0.000000 mW
   Cache Write Dynamic Power:       0.000000 mW
   Cache Total Power:               0.000000 mW

   Accelerator Power:               0.694497 mW
   Accelerator Power (SPM):         7.032833 mW
   Accelerator Power (Cache):       0.694497 mW

   ========= Area Analysis =======================
   FU Area:                         70212.562500 um^2 (0.070213 mm^2)
   Register Area:                   429.271088 um^2 (0.000429 mm^2)
   SPM Area:                        2177.365505 um^2 (0.002177 mm^2)
   Cache Area:                      0.000000 um^2 (0.000000 mm^2)

   Accelerator Area:                70641.835938 um^2 (0.070642 mm^2)
   Accelerator Area (SPM):          72819.201442 um^2 (0.072819 mm^2)
   Accelerator Area (Cache):        70641.835938 um^2 (0.070642 mm^2)

   ========= SPM Resizing  =======================
   SPM Optimized Leakage Power:     0.004248 mW
   SPM Opt Area:                    178.524902 um^2

3658110875: system.acctest.grayscale0_dma: SRC:0x000000002501c020, DST:0x0000000082028cc0, LEN:65536
3658490625: global: Timer #0 stopped at tick 3658490625. Duration: 14201875
3658505000: global: Number of accelerators running = 3
3658620000: global: Timer #0 started at tick 3658620000
3658796875: global: Timer #3 started at tick 3658796875
3659092500: global: Timer #3 stopped at tick 3659092500. Duration: 295625
3659150000: global: Timer #2 started at tick 3659150000
3659268125: global: Timer #2 stopped at tick 3659268125. Duration: 118125
3659531875: global: DAG ID = 2
3659545625: global: Node ID = 6
3659558750: global: Node deadline difference = -2239
3659571250: global: Predicted memory time / byte = 0.00025807 us/byte
3659583750: global: Predicted memory time = 50.7387 us
3659596250: global: Predicted memory time / byte = 0.00025807 us/byte
3659608750: global: Predicted memory time = 33.8258 us
3659621250: global: Predicted memory time / byte = 0.00018309 us/byte
3659633750: global: Predicted memory time = 11 us
3659646250: global: Predicted memory time / byte = 0 us/byte
3659658750: global: Predicted memory time = 0 us
3661158750: global: Timer #0 stopped at tick 3661158750. Duration: 2538750
3661173125: global: Number of accelerators running = 3
3664410875: system.acctest.grayscale0_dma: Transfer completed in 6.3 us
3664496250: global: Timer #0 started at tick 3664496250
3664553125: global: Timer #1 started at tick 3664553125
3664920625: global: Timer #1 stopped at tick 3664920625. Duration: 367500
3665237500: global: DAG ID = 0
3665251250: global: Node ID = 1
3665270625: global: Node deadline difference = -13399
3665283125: global: Predicted memory time / byte = 0.000260435 us/byte
3665295625: global: Predicted memory time = 29.8687 us
3665308125: global: Predicted memory time / byte = 0.00025807 us/byte
3665320625: global: Predicted memory time = 29.5976 us
3665333125: global: Predicted memory time / byte = 0.000377401 us/byte
3665345625: global: Predicted memory time = 18 us
3665358125: global: Predicted memory time / byte = 9.62067e-05 us/byte
3665370625: global: Predicted memory time = 6 us
3665510625: global: Timer #0 stopped at tick 3665510625. Duration: 1014375
3665525000: global: Number of accelerators running = 2
********************************************************************************
system.acctest.elem_matrix0.compute
   ========= Performance Analysis =============
   Setup Time:                      8.689339seconds
   Simulation Time:                 120.607297seconds
   System Clock:                    1.000000GHz
   Transistor Latency:              1ns
   Runtime:                         8316 cycles
   Runtime:                         8.316000 us
   Stalls:                          82 cycles
   Executed Nodes:                  8233 cycles

********************************************************************************
   ========= Performance Analysis =================
   Setup Time:                      8689338815.000000ns
   Simulation Time:                 120607296538.000000ns
   System Clock:                    1.000000GHz
   Transistor Latency:              0ns
   Runtime:                         8316 cycles
   Runtime:                         0.000001 seconds
   Stalls:                          82 cycles
       Load Only:                   0 cycles
       Store Only:                  77 cycles
       Compute Only:                0 cycles
       Compute & Store:             5 cycles
       Load & Store:                0 cycles
       Load & Compute:              0 cycles
       Load & Compute & Store:      0 cycles
   Executed Nodes:                  8233 cycles
       Load Only:                   0 cycles
       Store Only:                  11 cycles
       Compute Only:                1827 cycles
       Compute & Store:             3453 cycles
       Load & Store:                0 cycles
       Load & Compute:              774 cycles
       Load & Compute & Store:      2168 cycles

   ========= Runtime FU's ========= (Max | Avg) ===
   Counter FU's:                      32 | 0.061572
   Integer Add/Sub FU's:               0 | 0.000000
   Integer Mul/Div FU's:               0 | 0.000000
   Integer Shifter FU's:               0 | 0.000000
   Integer Bitwise FU's:               1 | 0.000120
   Floating Point Float Add/Sub:      80 | 0.302014
   Floating Point Double Add/Sub:      0 | 0.000000
   Floating Point Float Mul/Div:      35 | 0.056511
   Floating Point Double Mul/Div:      0 | 0.000000
   0 Cycle Compare FU's:              15 | 0.024828
   GEP Instruction FU's:              64 | 0.061568
   Type Conversion FU's:              66 | 0.120964

   ========= Static FU's ==========================
   Counter FU's:                    0
   Integer Add/Sub FU's:            0
   Integer Mul/Div FU's:            0
   Integer Shifter FU's:            0
   Integer Bitwise FU's:            0
   Floating Point Float Add/Sub:    0
   Floating Point Double Add/Sub:   0
   Floating Point Float Mul/Div:    0
   Floating Point Double Mul/Div:   0
   0 Cycle Compare FU's:            0
   GEP Instruction FU's:            0
   Type Conversion FU's:            0
   Other:                           0

   ========= Pipeline Register Usage =============
   Total Number of Registers:       5641
   Max Register Usage Per Cycle:    126
   Avg Register Usage Per Cycle:    27.706590
   Avg Register Size (Bytes):       5.993295

   ========= Memory Configuration =================
   Cache Bus Ports:                 0
   Shared Cache Size:               0kB
   Local Bus Ports:                 0
   Private SPM Size:                256kB
   Private Read Ports:              0
   Private Write Ports:             0
   Private Read Bus Width:          64
   Private Write Bus Width:         64
       Memory Reads:                0
       Memory Writes:               0
   ========= Power Analysis ======================
   FU Leakage Power:                1.265749 mW 
   FU Dynamic Power:                1.166708 mW 
   FU Total Power:                  2.432457 mW 

   Registers Leakage Power:          0.011908 mW 
   Registers Dynamic Power:          0.045645 mW 
       Register Reads (Bits):        230408
       Register Writes (Bits):       231961
   Registers Total Power:            0.057553 mW

   SPM Leakage Power:               0.104100 mW
   SPM Read Dynamic Power:          4.599549 mW
   SPM Write Dynamic Power:         2.880682 mW
   SPM Total Power:                 7.584331 mW

   Cache Leakage Power:             0.000000 mW
   Cache Read Dynamic Power:        0.000000 mW
   Cache Write Dynamic Power:       0.000000 mW
   Cache Total Power:               0.000000 mW

   Accelerator Power:               2.490010 mW
   Accelerator Power (SPM):         10.074342 mW
   Accelerator Power (Cache):       2.490010 mW

   ========= Area Analysis =======================
   FU Area:                         170559.593750 um^2 (0.170560 mm^2)
   Register Area:                   967.909180 um^2 (0.000968 mm^2)
   SPM Area:                        2177.365505 um^2 (0.002177 mm^2)
   Cache Area:                      0.000000 um^2 (0.000000 mm^2)

   Accelerator Area:                171527.500000 um^2 (0.171527 mm^2)
   Accelerator Area (SPM):          173704.865505 um^2 (0.173705 mm^2)
   Accelerator Area (Cache):        171527.500000 um^2 (0.171527 mm^2)

   ========= SPM Resizing  =======================
   SPM Optimized Leakage Power:     0.003887 mW
   SPM Opt Area:                    172.850411 um^2

3669322500: global: Timer #0 started at tick 3669322500
3669578750: global: Timer #3 started at tick 3669578750
3669728750: global: Timer #3 stopped at tick 3669728750. Duration: 150000
3669778750: global: Timer #2 started at tick 3669778750
3669878125: global: Timer #2 stopped at tick 3669878125. Duration: 99375
3670176875: global: DAG ID = 2
3670190625: global: Node ID = 7
3670203750: global: Node deadline difference = -2267
3670216250: global: Predicted memory time / byte = 0.000341061 us/byte
3670228750: global: Predicted memory time = 44.7035 us
3670241250: global: Predicted memory time / byte = 0.000341061 us/byte
3670253750: global: Predicted memory time = 44.7035 us
3670266250: global: Predicted memory time / byte = 0 us/byte
3670278750: global: Predicted memory time = 0 us
3670291250: global: Predicted memory time / byte = 0 us/byte
3670303750: global: Predicted memory time = 0 us
3683792375: system.acctest.elem_matrix0_dma: SRC:0x0000000082290040, DST:0x0000000024010020, LEN:65536
3684003125: global: Timer #0 stopped at tick 3684003125. Duration: 14680625
3684017500: global: Number of accelerators running = 2
3696052375: system.acctest.elem_matrix0_dma: Transfer completed in 12.26 us
3696136875: global: Timer #0 started at tick 3696136875
3696181875: global: Timer #1 started at tick 3696181875
3696518750: global: Timer #1 stopped at tick 3696518750. Duration: 336875
3698109375: global: Timer #0 stopped at tick 3698109375. Duration: 1972500
3698123750: global: Number of accelerators running = 2
********************************************************************************
system.acctest.elem_matrix0.compute
   ========= Performance Analysis =============
   Setup Time:                      5.591098seconds
   Simulation Time:                 83.710063seconds
   System Clock:                    1.000000GHz
   Transistor Latency:              1ns
   Runtime:                         10932 cycles
   Runtime:                         10.932000 us
   Stalls:                          1 cycles
   Executed Nodes:                  10930 cycles

********************************************************************************
   ========= Performance Analysis =================
   Setup Time:                      5591098186.000000ns
   Simulation Time:                 83710062790.000000ns
   System Clock:                    1.000000GHz
   Transistor Latency:              0ns
   Runtime:                         10932 cycles
   Runtime:                         0.000001 seconds
   Stalls:                          1 cycles
       Load Only:                   0 cycles
       Store Only:                  1 cycles
       Compute Only:                0 cycles
       Compute & Store:             0 cycles
       Load & Store:                0 cycles
       Load & Compute:              0 cycles
       Load & Compute & Store:      0 cycles
   Executed Nodes:                  10930 cycles
       Load Only:                   0 cycles
       Store Only:                  4 cycles
       Compute Only:                1 cycles
       Compute & Store:             21 cycles
       Load & Store:                0 cycles
       Load & Compute:              6 cycles
       Load & Compute & Store:      10898 cycles

   ========= Runtime FU's ========= (Max | Avg) ===
   Counter FU's:                      32 | 0.046838
   Integer Add/Sub FU's:               0 | 0.000000
   Integer Mul/Div FU's:               0 | 0.000000
   Integer Shifter FU's:               0 | 0.000000
   Integer Bitwise FU's:               1 | 0.000091
   Floating Point Float Add/Sub:       0 | 0.000000
   Floating Point Double Add/Sub:      0 | 0.000000
   Floating Point Float Mul/Div:      34 | 0.044252
   Floating Point Double Mul/Div:      0 | 0.000000
   0 Cycle Compare FU's:             102 | 0.046945
   GEP Instruction FU's:              96 | 0.046835
   Type Conversion FU's:               7 | 0.006782

   ========= Static FU's ==========================
   Counter FU's:                    0
   Integer Add/Sub FU's:            0
   Integer Mul/Div FU's:            0
   Integer Shifter FU's:            0
   Integer Bitwise FU's:            0
   Floating Point Float Add/Sub:    0
   Floating Point Double Add/Sub:   0
   Floating Point Float Mul/Div:    0
   Floating Point Double Mul/Div:   0
   0 Cycle Compare FU's:            0
   GEP Instruction FU's:            0
   Type Conversion FU's:            0
   Other:                           0

   ========= Pipeline Register Usage =============
   Total Number of Registers:       5641
   Max Register Usage Per Cycle:    137
   Avg Register Usage Per Cycle:    12.130992
   Avg Register Size (Bytes):       5.980606

   ========= Memory Configuration =================
   Cache Bus Ports:                 0
   Shared Cache Size:               0kB
   Local Bus Ports:                 0
   Private SPM Size:                256kB
   Private Read Ports:              0
   Private Write Ports:             0
   Private Read Bus Width:          64
   Private Write Bus Width:         64
       Memory Reads:                0
       Memory Writes:               0
   ========= Power Analysis ======================
   FU Leakage Power:                0.045377 mW 
   FU Dynamic Power:                0.142576 mW 
   FU Total Power:                  0.187953 mW 

   Registers Leakage Power:          0.005281 mW 
   Registers Dynamic Power:          0.015326 mW 
       Register Reads (Bits):        132616
       Register Writes (Bits):       133658
   Registers Total Power:            0.020607 mW

   SPM Leakage Power:               0.104100 mW
   SPM Read Dynamic Power:          4.784107 mW
   SPM Write Dynamic Power:         3.448926 mW
   SPM Total Power:                 8.337133 mW

   Cache Leakage Power:             0.000000 mW
   Cache Read Dynamic Power:        0.000000 mW
   Cache Write Dynamic Power:       0.000000 mW
   Cache Total Power:               0.000000 mW

   Accelerator Power:               0.208559 mW
   Accelerator Power (SPM):         8.545693 mW
   Accelerator Power (Cache):       0.208559 mW

   ========= Area Analysis =======================
   FU Area:                         5472.068359 um^2 (0.005472 mm^2)
   Register Area:                   429.271088 um^2 (0.000429 mm^2)
   SPM Area:                        2177.365505 um^2 (0.002177 mm^2)
   Cache Area:                      0.000000 um^2 (0.000000 mm^2)

   Accelerator Area:                5901.339355 um^2 (0.005901 mm^2)
   Accelerator Area (SPM):          8078.704860 um^2 (0.008079 mm^2)
   Accelerator Area (Cache):        5901.339355 um^2 (0.005901 mm^2)

   ========= SPM Resizing  =======================
   SPM Optimized Leakage Power:     0.004248 mW
   SPM Opt Area:                    178.524902 um^2

3708868125: global: Timer #0 started at tick 3708868125
3709037500: global: Timer #3 started at tick 3709037500
3709263125: global: Timer #3 stopped at tick 3709263125. Duration: 225625
3709310625: global: Timer #2 started at tick 3709310625
3709409375: global: Timer #2 stopped at tick 3709409375. Duration: 98750
3709641875: global: DAG ID = 2
3709655625: global: Node ID = 8
3709668750: global: Node deadline difference = -2285
3709681250: global: Predicted memory time / byte = 0.000330951 us/byte
3709693750: global: Predicted memory time = 65.0676 us
3709706250: global: Predicted memory time / byte = 0.000330951 us/byte
3709718750: global: Predicted memory time = 43.3784 us
3709731250: global: Predicted memory time / byte = 0.000187119 us/byte
3709743750: global: Predicted memory time = 12 us
3709756250: global: Predicted memory time / byte = 0 us/byte
3709768750: global: Predicted memory time = 0 us
3723180875: system.acctest.elem_matrix0_dma: SRC:0x000000008218fe80, DST:0x0000000024000020, LEN:65536
3723381250: global: Timer #0 stopped at tick 3723381250. Duration: 14513125
3723394375: global: Number of accelerators running = 2
3735129875: system.acctest.elem_matrix0_dma: Transfer completed in 11.949 us
3735203125: global: Timer #0 started at tick 3735203125
3735245000: global: Timer #1 started at tick 3735245000
3735572500: global: Timer #1 stopped at tick 3735572500. Duration: 327500
3737120625: global: Timer #0 stopped at tick 3737120625. Duration: 1917500
3737135000: global: Number of accelerators running = 2
********************************************************************************
system.acctest.elem_matrix0.compute
   ========= Performance Analysis =============
   Setup Time:                      4.697802seconds
   Simulation Time:                 74.530039seconds
   System Clock:                    1.000000GHz
   Transistor Latency:              1ns
   Runtime:                         10932 cycles
   Runtime:                         10.932000 us
   Stalls:                          0 cycles
   Executed Nodes:                  10931 cycles

********************************************************************************
   ========= Performance Analysis =================
   Setup Time:                      4697802472.000000ns
   Simulation Time:                 74530038998.000000ns
   System Clock:                    1.000000GHz
   Transistor Latency:              0ns
   Runtime:                         10932 cycles
   Runtime:                         0.000001 seconds
   Stalls:                          0 cycles
       Load Only:                   0 cycles
       Store Only:                  0 cycles
       Compute Only:                0 cycles
       Compute & Store:             0 cycles
       Load & Store:                0 cycles
       Load & Compute:              0 cycles
       Load & Compute & Store:      0 cycles
   Executed Nodes:                  10931 cycles
       Load Only:                   0 cycles
       Store Only:                  5 cycles
       Compute Only:                1 cycles
       Compute & Store:             21 cycles
       Load & Store:                0 cycles
       Load & Compute:              7 cycles
       Load & Compute & Store:      10897 cycles

   ========= Runtime FU's ========= (Max | Avg) ===
   Counter FU's:                      32 | 0.046838
   Integer Add/Sub FU's:               0 | 0.000000
   Integer Mul/Div FU's:               0 | 0.000000
   Integer Shifter FU's:               0 | 0.000000
   Integer Bitwise FU's:               1 | 0.000091
   Floating Point Float Add/Sub:      34 | 0.044252
   Floating Point Double Add/Sub:      0 | 0.000000
   Floating Point Float Mul/Div:       0 | 0.000000
   Floating Point Double Mul/Div:      0 | 0.000000
   0 Cycle Compare FU's:             102 | 0.046974
   GEP Instruction FU's:              96 | 0.046835
   Type Conversion FU's:               7 | 0.006782

   ========= Static FU's ==========================
   Counter FU's:                    0
   Integer Add/Sub FU's:            0
   Integer Mul/Div FU's:            0
   Integer Shifter FU's:            0
   Integer Bitwise FU's:            0
   Floating Point Float Add/Sub:    0
   Floating Point Double Add/Sub:   0
   Floating Point Float Mul/Div:    0
   Floating Point Double Mul/Div:   0
   0 Cycle Compare FU's:            0
   GEP Instruction FU's:            0
   Type Conversion FU's:            0
   Other:                           0

   ========= Pipeline Register Usage =============
   Total Number of Registers:       5641
   Max Register Usage Per Cycle:    138
   Avg Register Usage Per Cycle:    12.130992
   Avg Register Size (Bytes):       5.980606

   ========= Memory Configuration =================
   Cache Bus Ports:                 0
   Shared Cache Size:               0kB
   Local Bus Ports:                 0
   Private SPM Size:                256kB
   Private Read Ports:              0
   Private Write Ports:             0
   Private Read Bus Width:          64
   Private Write Bus Width:         64
       Memory Reads:                0
       Memory Writes:               0
   ========= Power Analysis ======================
   FU Leakage Power:                0.519269 mW 
   FU Dynamic Power:                0.154621 mW 
   FU Total Power:                  0.673890 mW 

   Registers Leakage Power:          0.005281 mW 
   Registers Dynamic Power:          0.015326 mW 
       Register Reads (Bits):        132616
       Register Writes (Bits):       133658
   Registers Total Power:            0.020607 mW

   SPM Leakage Power:               0.104100 mW
   SPM Read Dynamic Power:          5.190014 mW
   SPM Write Dynamic Power:         3.846212 mW
   SPM Total Power:                 9.140327 mW

   Cache Leakage Power:             0.000000 mW
   Cache Read Dynamic Power:        0.000000 mW
   Cache Write Dynamic Power:       0.000000 mW
   Cache Total Power:               0.000000 mW

   Accelerator Power:               0.694497 mW
   Accelerator Power (SPM):         9.834824 mW
   Accelerator Power (Cache):       0.694497 mW

   ========= Area Analysis =======================
   FU Area:                         70212.562500 um^2 (0.070213 mm^2)
   Register Area:                   429.271088 um^2 (0.000429 mm^2)
   SPM Area:                        2177.365505 um^2 (0.002177 mm^2)
   Cache Area:                      0.000000 um^2 (0.000000 mm^2)

   Accelerator Area:                70641.835938 um^2 (0.070642 mm^2)
   Accelerator Area (SPM):          72819.201442 um^2 (0.072819 mm^2)
   Accelerator Area (Cache):        70641.835938 um^2 (0.070642 mm^2)

   ========= SPM Resizing  =======================
   SPM Optimized Leakage Power:     0.004248 mW
   SPM Opt Area:                    178.524902 um^2

3747917500: global: Timer #0 started at tick 3747917500
3748165625: global: Timer #3 started at tick 3748165625
3748321875: global: Timer #3 stopped at tick 3748321875. Duration: 156250
3748376875: global: Timer #2 started at tick 3748376875
3748475000: global: Timer #2 stopped at tick 3748475000. Duration: 98125
3748760000: global: DAG ID = 2
3748773750: global: Node ID = 9
3748786875: global: Node deadline difference = -2303
3748799375: global: Predicted memory time / byte = 0.000298668 us/byte
3748811875: global: Predicted memory time = 58.7205 us
3748824375: global: Predicted memory time / byte = 0.000298668 us/byte
3748836875: global: Predicted memory time = 39.147 us
3748849375: global: Predicted memory time / byte = 0.000182159 us/byte
3748861875: global: Predicted memory time = 11 us
3748874375: global: Predicted memory time / byte = 0 us/byte
3748886875: global: Predicted memory time = 0 us
3762272375: system.acctest.elem_matrix0_dma: SRC:0x000000008216fe80, DST:0x0000000024000020, LEN:65536
3762489375: global: Timer #0 stopped at tick 3762489375. Duration: 14571875
3762503750: global: Number of accelerators running = 2
3774274375: system.acctest.elem_matrix0_dma: Transfer completed in 12.002 us
3774348125: global: Timer #0 started at tick 3774348125
3774390000: global: Timer #1 started at tick 3774390000
3774717500: global: Timer #1 stopped at tick 3774717500. Duration: 327500
3776245625: global: Timer #0 stopped at tick 3776245625. Duration: 1897500
3776260000: global: Number of accelerators running = 2
********************************************************************************
system.acctest.elem_matrix0.compute
   ========= Performance Analysis =============
   Setup Time:                      4.613578seconds
   Simulation Time:                 75.082760seconds
   System Clock:                    1.000000GHz
   Transistor Latency:              1ns
   Runtime:                         10932 cycles
   Runtime:                         10.932000 us
   Stalls:                          1 cycles
   Executed Nodes:                  10930 cycles

********************************************************************************
   ========= Performance Analysis =================
   Setup Time:                      4613577858.000000ns
   Simulation Time:                 75082759575.000000ns
   System Clock:                    1.000000GHz
   Transistor Latency:              0ns
   Runtime:                         10932 cycles
   Runtime:                         0.000001 seconds
   Stalls:                          1 cycles
       Load Only:                   0 cycles
       Store Only:                  1 cycles
       Compute Only:                0 cycles
       Compute & Store:             0 cycles
       Load & Store:                0 cycles
       Load & Compute:              0 cycles
       Load & Compute & Store:      0 cycles
   Executed Nodes:                  10930 cycles
       Load Only:                   0 cycles
       Store Only:                  4 cycles
       Compute Only:                1 cycles
       Compute & Store:             21 cycles
       Load & Store:                0 cycles
       Load & Compute:              6 cycles
       Load & Compute & Store:      10898 cycles

   ========= Runtime FU's ========= (Max | Avg) ===
   Counter FU's:                      32 | 0.046838
   Integer Add/Sub FU's:               0 | 0.000000
   Integer Mul/Div FU's:               0 | 0.000000
   Integer Shifter FU's:               0 | 0.000000
   Integer Bitwise FU's:               1 | 0.000091
   Floating Point Float Add/Sub:       0 | 0.000000
   Floating Point Double Add/Sub:      0 | 0.000000
   Floating Point Float Mul/Div:      34 | 0.044252
   Floating Point Double Mul/Div:      0 | 0.000000
   0 Cycle Compare FU's:             102 | 0.046945
   GEP Instruction FU's:              96 | 0.046835
   Type Conversion FU's:               7 | 0.006782

   ========= Static FU's ==========================
   Counter FU's:                    0
   Integer Add/Sub FU's:            0
   Integer Mul/Div FU's:            0
   Integer Shifter FU's:            0
   Integer Bitwise FU's:            0
   Floating Point Float Add/Sub:    0
   Floating Point Double Add/Sub:   0
   Floating Point Float Mul/Div:    0
   Floating Point Double Mul/Div:   0
   0 Cycle Compare FU's:            0
   GEP Instruction FU's:            0
   Type Conversion FU's:            0
   Other:                           0

   ========= Pipeline Register Usage =============
   Total Number of Registers:       5641
   Max Register Usage Per Cycle:    137
   Avg Register Usage Per Cycle:    12.130992
   Avg Register Size (Bytes):       5.980606

   ========= Memory Configuration =================
   Cache Bus Ports:                 0
   Shared Cache Size:               0kB
   Local Bus Ports:                 0
   Private SPM Size:                256kB
   Private Read Ports:              0
   Private Write Ports:             0
   Private Read Bus Width:          64
   Private Write Bus Width:         64
       Memory Reads:                0
       Memory Writes:               0
   ========= Power Analysis ======================
   FU Leakage Power:                0.045377 mW 
   FU Dynamic Power:                0.142576 mW 
   FU Total Power:                  0.187953 mW 

   Registers Leakage Power:          0.005281 mW 
   Registers Dynamic Power:          0.015326 mW 
       Register Reads (Bits):        132616
       Register Writes (Bits):       133658
   Registers Total Power:            0.020607 mW

   SPM Leakage Power:               0.104100 mW
   SPM Read Dynamic Power:          5.599688 mW
   SPM Write Dynamic Power:         4.937352 mW
   SPM Total Power:                 10.641140 mW

   Cache Leakage Power:             0.000000 mW
   Cache Read Dynamic Power:        0.000000 mW
   Cache Write Dynamic Power:       0.000000 mW
   Cache Total Power:               0.000000 mW

   Accelerator Power:               0.208559 mW
   Accelerator Power (SPM):         10.849700 mW
   Accelerator Power (Cache):       0.208559 mW

   ========= Area Analysis =======================
   FU Area:                         5472.068359 um^2 (0.005472 mm^2)
   Register Area:                   429.271088 um^2 (0.000429 mm^2)
   SPM Area:                        2177.365505 um^2 (0.002177 mm^2)
   Cache Area:                      0.000000 um^2 (0.000000 mm^2)

   Accelerator Area:                5901.339355 um^2 (0.005901 mm^2)
   Accelerator Area (SPM):          8078.704860 um^2 (0.008079 mm^2)
   Accelerator Area (Cache):        5901.339355 um^2 (0.005901 mm^2)

   ========= SPM Resizing  =======================
   SPM Optimized Leakage Power:     0.004248 mW
   SPM Opt Area:                    178.524902 um^2

3787035625: global: Timer #0 started at tick 3787035625
3787206250: global: Timer #3 started at tick 3787206250
3787420625: global: Timer #3 stopped at tick 3787420625. Duration: 214375
3787468125: global: Timer #2 started at tick 3787468125
3787616875: global: Timer #2 stopped at tick 3787616875. Duration: 148750
3787848750: global: DAG ID = 2
3787862500: global: Node ID = 10
3787875625: global: Node deadline difference = -2322
3787888125: global: Predicted memory time / byte = 0.000274759 us/byte
3787900625: global: Predicted memory time = 54.0199 us
3787913125: global: Predicted memory time / byte = 0.000274759 us/byte
3787925625: global: Predicted memory time = 36.0133 us
3787938125: global: Predicted memory time / byte = 0.000182968 us/byte
3787950625: global: Predicted memory time = 11 us
3787963125: global: Predicted memory time / byte = 0 us/byte
3787975625: global: Predicted memory time = 0 us
3801358750: system.acctest.elem_matrix0_dma: SRC:0x000000008217fe80, DST:0x0000000024000020, LEN:65536
3801571250: global: Timer #0 stopped at tick 3801571250. Duration: 14535625
3801585625: global: Number of accelerators running = 2
3813336750: system.acctest.elem_matrix0_dma: Transfer completed in 11.978 us
3813430625: global: Timer #0 started at tick 3813430625
3813480000: global: Timer #1 started at tick 3813480000
[...]
       Load & Compute:              18 cycles
       Load & Compute & Store:      10886 cycles

   ========= Runtime FU's ========= (Max | Avg) ===
   Counter FU's:                      32 | 0.046786
   Integer Add/Sub FU's:               0 | 0.000000
   Integer Mul/Div FU's:               0 | 0.000000
   Integer Shifter FU's:               0 | 0.000000
   Integer Bitwise FU's:               1 | 0.000091
   Floating Point Float Add/Sub:       0 | 0.000000
   Floating Point Double Add/Sub:      0 | 0.000000
   Floating Point Float Mul/Div:       0 | 0.000000
   Floating Point Double Mul/Div:      0 | 0.000000
   0 Cycle Compare FU's:             102 | 0.047066
   GEP Instruction FU's:              96 | 0.046784
   Type Conversion FU's:               7 | 0.006775

   ========= Static FU's ==========================
   Counter FU's:                    0
   Integer Add/Sub FU's:            0
   Integer Mul/Div FU's:            0
   Integer Shifter FU's:            0
   Integer Bitwise FU's:            0
   Floating Point Float Add/Sub:    0
   Floating Point Double Add/Sub:   0
   Floating Point Float Mul/Div:    0
   Floating Point Double Mul/Div:   0
   0 Cycle Compare FU's:            0
   GEP Instruction FU's:            0
   Type Conversion FU's:            0
   Other:                           0

   ========= Pipeline Register Usage =============
   Total Number of Registers:       5641
   Max Register Usage Per Cycle:    137
   Avg Register Usage Per Cycle:    12.117690
   Avg Register Size (Bytes):       5.980606

   ========= Memory Configuration =================
   Cache Bus Ports:                 0
   Shared Cache Size:               0kB
   Local Bus Ports:                 0
   Private SPM Size:                256kB
   Private Read Ports:              0
   Private Write Ports:             0
   Private Read Bus Width:          64
   Private Write Bus Width:         64
       Memory Reads:                0
       Memory Writes:               0
   ========= Power Analysis ======================
   FU Leakage Power:                0.000611 mW 
   FU Dynamic Power:                0.036818 mW 
   FU Total Power:                  0.037429 mW 

   Registers Leakage Power:          0.005281 mW 
   Registers Dynamic Power:          0.015342 mW 
       Register Reads (Bits):        132616
       Register Writes (Bits):       133658
   Registers Total Power:            0.020624 mW

   SPM Leakage Power:               0.104100 mW
   SPM Read Dynamic Power:          23.975050 mW
   SPM Write Dynamic Power:         19.602807 mW
   SPM Total Power:                 43.681958 mW

   Cache Leakage Power:             0.000000 mW
   Cache Read Dynamic Power:        0.000000 mW
   Cache Write Dynamic Power:       0.000000 mW
   Cache Total Power:               0.000000 mW

   Accelerator Power:               0.058053 mW
   Accelerator Power (SPM):         43.740011 mW
   Accelerator Power (Cache):       0.058053 mW

   ========= Area Analysis =======================
   FU Area:                         50.369961 um^2 (0.000050 mm^2)
   Register Area:                   429.271088 um^2 (0.000429 mm^2)
   SPM Area:                        2177.365505 um^2 (0.002177 mm^2)
   Cache Area:                      0.000000 um^2 (0.000000 mm^2)

   Accelerator Area:                479.641052 um^2 (0.000480 mm^2)
   Accelerator Area (SPM):          2657.006557 um^2 (0.002657 mm^2)
   Accelerator Area (Cache):        479.641052 um^2 (0.000480 mm^2)

   ========= SPM Resizing  =======================
   SPM Optimized Leakage Power:     0.004248 mW
   SPM Opt Area:                    178.524902 um^2

21134082500: global: Timer #0 started at tick 21134082500
21134245000: global: Timer #3 started at tick 21134245000
21134451875: global: Timer #3 stopped at tick 21134451875. Duration: 206875
21134499375: global: Timer #2 started at tick 21134499375
21134566250: global: Timer #2 stopped at tick 21134566250. Duration: 66875
21134790000: global: DAG ID = 1
21134803750: global: Node ID = 19
21134816875: global: Node deadline difference = 2638
21134829375: global: Predicted memory time / byte = 0.000176428 us/byte
21134841875: global: Predicted memory time = 34.6872 us
21134854375: global: Predicted memory time / byte = 0.000176428 us/byte
21134866875: global: Predicted memory time = 34.6872 us
21134879375: global: Predicted memory time / byte = 0.000169395 us/byte
21134891875: global: Predicted memory time = 21 us
21134904375: global: Predicted memory time / byte = 0 us/byte
21134916875: global: Predicted memory time = 0 us
21135770875: system.acctest.convolution0_dma: SRC:0x0000000024020020, DST:0x0000000022000020, LEN:65536
21135993125: global: Timer #0 stopped at tick 21135993125. Duration: 1910625
21136007500: global: Number of accelerators running = 1
21146031875: system.acctest.convolution0_dma: Transfer completed in 10.261 us
21146107500: global: Timer #0 started at tick 21146107500
21146142500: global: Timer #1 started at tick 21146142500
21146452500: global: Timer #1 stopped at tick 21146452500. Duration: 310000
21147510875: system.acctest.convolution0_dma: SRC:0x00000000820cdc80, DST:0x0000000022030020, LEN:100
21147607875: system.acctest.convolution0_dma: Transfer completed in 0.097 us
21147725625: global: Timer #0 stopped at tick 21147725625. Duration: 1618125
21147740000: global: Number of accelerators running = 1
21147858125: global: Timer #0 started at tick 21147858125
21149174375: global: Timer #0 stopped at tick 21149174375. Duration: 1316250
21149188750: global: Number of accelerators running = 1
********************************************************************************
system.acctest.convolution0.compute
   ========= Performance Analysis =============
   Setup Time:                      0.413259seconds
   Simulation Time:                 192.350915seconds
   System Clock:                    1.000000GHz
   Transistor Latency:              1ns
   Runtime:                         1545605 cycles
   Runtime:                         1545.605000 us
   Stalls:                          0 cycles
   Executed Nodes:                  1545604 cycles

********************************************************************************
   ========= Performance Analysis =================
   Setup Time:                      413259185.000000ns
   Simulation Time:                 192350915147.000000ns
   System Clock:                    1.000000GHz
   Transistor Latency:              0ns
   Runtime:                         1545605 cycles
   Runtime:                         0.000155 seconds
   Stalls:                          0 cycles
       Load Only:                   0 cycles
       Store Only:                  0 cycles
       Compute Only:                0 cycles
       Compute & Store:             0 cycles
       Load & Store:                0 cycles
       Load & Compute:              0 cycles
       Load & Compute & Store:      0 cycles
   Executed Nodes:                  1545604 cycles
       Load Only:                   0 cycles
       Store Only:                  0 cycles
       Compute Only:                1127274 cycles
       Compute & Store:             16374 cycles
       Load & Store:                0 cycles
       Load & Compute:              401946 cycles
       Load & Compute & Store:      10 cycles

   ========= Runtime FU's ========= (Max | Avg) ===
   Counter FU's:                       3 | 0.112298
   Integer Add/Sub FU's:               4 | 0.211564
   Integer Mul/Div FU's:               1 | 0.052505
   Integer Shifter FU's:              10 | 0.005268
   Integer Bitwise FU's:               2 | 0.184266
   Floating Point Float Add/Sub:       5 | 0.207991
   Floating Point Double Add/Sub:      0 | 0.000000
   Floating Point Float Mul/Div:       2 | 0.130117
   Floating Point Double Mul/Div:      0 | 0.000000
   0 Cycle Compare FU's:              40 | 0.145956
   GEP Instruction FU's:               4 | 0.132683
   Type Conversion FU's:               7 | 0.186618

   ========= Static FU's ==========================
   Counter FU's:                    0
   Integer Add/Sub FU's:            0
   Integer Mul/Div FU's:            0
   Integer Shifter FU's:            0
   Integer Bitwise FU's:            0
   Floating Point Float Add/Sub:    0
   Floating Point Double Add/Sub:   0
   Floating Point Float Mul/Div:    0
   Floating Point Double Mul/Div:   0
   0 Cycle Compare FU's:            0
   GEP Instruction FU's:            0
   Type Conversion FU's:            0
   Other:                           0

   ========= Pipeline Register Usage =============
   Total Number of Registers:       1702
   Max Register Usage Per Cycle:    20
   Avg Register Usage Per Cycle:    6.348199
   Avg Register Size (Bytes):       5.569148

   ========= Memory Configuration =================
   Cache Bus Ports:                 0
   Shared Cache Size:               0kB
   Local Bus Ports:                 0
   Private SPM Size:                192kB
   Private Read Ports:              0
   Private Write Ports:             0
   Private Read Bus Width:          64
   Private Write Bus Width:         64
       Memory Reads:                0
       Memory Writes:               0
   ========= Power Analysis ======================
   FU Leakage Power:                0.196912 mW 
   FU Dynamic Power:                2743.028564 mW 
   FU Total Power:                  2743.225586 mW 

   Registers Leakage Power:          0.002459 mW 
   Registers Dynamic Power:          75.251152 mW 
       Register Reads (Bits):        9811808
       Register Writes (Bits):       10049727
   Registers Total Power:            75.253609 mW

   SPM Leakage Power:               0.078311 mW
   SPM Read Dynamic Power:          37.099763 mW
   SPM Write Dynamic Power:         5.754209 mW
   SPM Total Power:                 42.932282 mW

   Cache Leakage Power:             0.000000 mW
   Cache Read Dynamic Power:        0.000000 mW
   Cache Write Dynamic Power:       0.000000 mW
   Cache Total Power:               0.000000 mW

   Accelerator Power:               2818.479248 mW
   Accelerator Power (SPM):         2861.411530 mW
   Accelerator Power (Cache):       2818.479248 mW

   ========= Area Analysis =======================
   FU Area:                         22931.867188 um^2 (0.022932 mm^2)
   Register Area:                   199.868912 um^2 (0.000200 mm^2)
   SPM Area:                        1748.188735 um^2 (0.001748 mm^2)
   Cache Area:                      0.000000 um^2 (0.000000 mm^2)

   Accelerator Area:                23131.736328 um^2 (0.023132 mm^2)
   Accelerator Area (SPM):          24879.925063 um^2 (0.024880 mm^2)
   Accelerator Area (Cache):        23131.736328 um^2 (0.023132 mm^2)

   ========= SPM Resizing  =======================
   SPM Optimized Leakage Power:     0.002053 mW
   SPM Opt Area:                    145.024971 um^2

22694653125: global: Timer #0 started at tick 22694653125
22694819375: global: Timer #3 started at tick 22694819375
22694962500: global: Timer #3 stopped at tick 22694962500. Duration: 143125
22695010000: global: Timer #2 started at tick 22695010000
22695076875: global: Timer #2 stopped at tick 22695076875. Duration: 66875
22695301875: global: DAG ID = 1
22695315625: global: Node ID = 20
22695328750: global: Node deadline difference = 2622
22695341250: global: Predicted memory time / byte = 0.000177043 us/byte
22695353750: global: Predicted memory time = 23.2231 us
22695366250: global: Predicted memory time / byte = 0.000177043 us/byte
22695378750: global: Predicted memory time = 23.2231 us
22695391250: global: Predicted memory time / byte = 0.00015625 us/byte
22695403750: global: Predicted memory time = 10 us
22695416250: global: Predicted memory time / byte = 0 us/byte
22695428750: global: Predicted memory time = 0 us
22708898750: system.acctest.elem_matrix0_dma: SRC:0x00000000820fdd40, DST:0x0000000024000020, LEN:65536
22709097500: global: Timer #0 stopped at tick 22709097500. Duration: 14444375
22709111250: global: Number of accelerators running = 1
22720801750: system.acctest.elem_matrix0_dma: Transfer completed in 11.903 us
22720886875: global: Timer #0 started at tick 22720886875
22720929375: global: Timer #1 started at tick 22720929375
22721241875: global: Timer #1 stopped at tick 22721241875. Duration: 312500
22722303750: system.acctest.elem_matrix0_dma: SRC:0x0000000022010020, DST:0x0000000024010020, LEN:65536
22722521250: global: Timer #0 stopped at tick 22722521250. Duration: 1634375
22722535625: global: Number of accelerators running = 1
22732564750: system.acctest.elem_matrix0_dma: Transfer completed in 10.261 us
22732639375: global: Timer #0 started at tick 22732639375
22732675000: global: Timer #1 started at tick 22732675000
22732985000: global: Timer #1 stopped at tick 22732985000. Duration: 310000
22734552500: global: Timer #0 stopped at tick 22734552500. Duration: 1913125
22734566875: global: Number of accelerators running = 1
********************************************************************************
system.acctest.elem_matrix0.compute
   ========= Performance Analysis =============
   Setup Time:                      3.656287seconds
   Simulation Time:                 75.597531seconds
   System Clock:                    1.000000GHz
   Transistor Latency:              1ns
   Runtime:                         10932 cycles
   Runtime:                         10.932000 us
   Stalls:                          1 cycles
   Executed Nodes:                  10930 cycles

********************************************************************************
   ========= Performance Analysis =================
   Setup Time:                      3656287007.000000ns
   Simulation Time:                 75597530694.000000ns
   System Clock:                    1.000000GHz
   Transistor Latency:              0ns
   Runtime:                         10932 cycles
   Runtime:                         0.000001 seconds
   Stalls:                          1 cycles
       Load Only:                   0 cycles
       Store Only:                  1 cycles
       Compute Only:                0 cycles
       Compute & Store:             0 cycles
       Load & Store:                0 cycles
       Load & Compute:              0 cycles
       Load & Compute & Store:      0 cycles
   Executed Nodes:                  10930 cycles
       Load Only:                   0 cycles
       Store Only:                  4 cycles
       Compute Only:                1 cycles
       Compute & Store:             21 cycles
       Load & Store:                0 cycles
       Load & Compute:              6 cycles
       Load & Compute & Store:      10898 cycles

   ========= Runtime FU's ========= (Max | Avg) ===
   Counter FU's:                      32 | 0.046838
   Integer Add/Sub FU's:               0 | 0.000000
   Integer Mul/Div FU's:               0 | 0.000000
   Integer Shifter FU's:               0 | 0.000000
   Integer Bitwise FU's:               1 | 0.000091
   Floating Point Float Add/Sub:       0 | 0.000000
   Floating Point Double Add/Sub:      0 | 0.000000
   Floating Point Float Mul/Div:      34 | 0.044252
   Floating Point Double Mul/Div:      0 | 0.000000
   0 Cycle Compare FU's:             102 | 0.046945
   GEP Instruction FU's:              96 | 0.046835
   Type Conversion FU's:               7 | 0.006782

   ========= Static FU's ==========================
   Counter FU's:                    0
   Integer Add/Sub FU's:            0
   Integer Mul/Div FU's:            0
   Integer Shifter FU's:            0
   Integer Bitwise FU's:            0
   Floating Point Float Add/Sub:    0
   Floating Point Double Add/Sub:   0
   Floating Point Float Mul/Div:    0
   Floating Point Double Mul/Div:   0
   0 Cycle Compare FU's:            0
   GEP Instruction FU's:            0
   Type Conversion FU's:            0
   Other:                           0

   ========= Pipeline Register Usage =============
   Total Number of Registers:       5641
   Max Register Usage Per Cycle:    137
   Avg Register Usage Per Cycle:    12.130992
   Avg Register Size (Bytes):       5.980606

   ========= Memory Configuration =================
   Cache Bus Ports:                 0
   Shared Cache Size:               0kB
   Local Bus Ports:                 0
   Private SPM Size:                256kB
   Private Read Ports:              0
   Private Write Ports:             0
   Private Read Bus Width:          64
   Private Write Bus Width:         64
       Memory Reads:                0
       Memory Writes:               0
   ========= Power Analysis ======================
   FU Leakage Power:                0.045377 mW 
   FU Dynamic Power:                0.142576 mW 
   FU Total Power:                  0.187953 mW 

   Registers Leakage Power:          0.005281 mW 
   Registers Dynamic Power:          0.015326 mW 
       Register Reads (Bits):        132616
       Register Writes (Bits):       133658
   Registers Total Power:            0.020607 mW

   SPM Leakage Power:               0.104100 mW
   SPM Read Dynamic Power:          24.075045 mW
   SPM Write Dynamic Power:         19.658302 mW
   SPM Total Power:                 43.837447 mW

   Cache Leakage Power:             0.000000 mW
   Cache Read Dynamic Power:        0.000000 mW
   Cache Write Dynamic Power:       0.000000 mW
   Cache Total Power:               0.000000 mW

   Accelerator Power:               0.208559 mW
   Accelerator Power (SPM):         44.046006 mW
   Accelerator Power (Cache):       0.208559 mW

   ========= Area Analysis =======================
   FU Area:                         5472.068359 um^2 (0.005472 mm^2)
   Register Area:                   429.271088 um^2 (0.000429 mm^2)
   SPM Area:                        2177.365505 um^2 (0.002177 mm^2)
   Cache Area:                      0.000000 um^2 (0.000000 mm^2)

   Accelerator Area:                5901.339355 um^2 (0.005901 mm^2)
   Accelerator Area (SPM):          8078.704860 um^2 (0.008079 mm^2)
   Accelerator Area (Cache):        5901.339355 um^2 (0.005901 mm^2)

   ========= SPM Resizing  =======================
   SPM Optimized Leakage Power:     0.004248 mW
   SPM Opt Area:                    178.524902 um^2

22745345625: global: Timer #0 started at tick 22745345625
22758650875: system.acctest.elem_matrix0_dma: SRC:0x0000000024020020, DST:0x00000000820fdd40, LEN:65536
22758994375: global: Timer #0 stopped at tick 22758994375. Duration: 13648750
22759008750: global: Number of accelerators running = 1
22765004875: system.acctest.elem_matrix0_dma: Transfer completed in 6.354 us
22765090000: global: Timer #0 started at tick 22765090000
22765143125: global: Timer #1 started at tick 22765143125
22765463750: global: Timer #1 stopped at tick 22765463750. Duration: 320625
22765780625: global: DAG ID = 1
22765794375: global: Node ID = 21
22765818750: global: DAG execution time = 19302
22765831875: global: DAG deadline difference = 2635
22765850000: global: Node deadline difference = 2635
22765862500: global: Predicted memory time / byte = 0.000171506 us/byte
22765875000: global: Predicted memory time = 33.7194 us
22765887500: global: Predicted memory time / byte = 0.000171506 us/byte
22765900000: global: Predicted memory time = 33.7194 us
22765912500: global: Predicted memory time / byte = 0.000168953 us/byte
22765925000: global: Predicted memory time = 21 us
22765937500: global: Predicted memory time / byte = 9.70459e-05 us/byte
22765950000: global: Predicted memory time = 6 us
22766045625: global: Timer #0 stopped at tick 22766045625. Duration: 955625
22766060000: global: Number of accelerators running = 0
22766136875: global: Number of forwards = 126
22766290000: global: Number of colocations = 105
22766309375: global: Number of DAG deadlines met = 2
22766329375: global: Number of node deadlines met = 136
22766363750: global: Total predicted compute time = 20313 us
Exiting @ tick 22766591250 because m5_exit instruction encountered
