gem5 Simulator System.  http://gem5.org
gem5 is copyrighted software; use the --copyright option for details.

gem5 compiled May 11 2023 13:12:28
gem5 started May 28 2023 00:42:03
gem5 executing on node4x10a.cs.rochester.edu, pid 37730
command line: /u/sgupta45/gem5-SALAM/build/ARM/gem5_bus.opt --debug-flags=HWACC,CommInterface,LLVMInterface,StreamDma,NoncoherentDma,TickTimer,SchedulerStats --outdir=BM_ARM_OUT/comb_3/canny_1_deblur_1_gru_0_harris_1_lstm_0_LAX configs/SALAM/scheduler.py --mem-size=4GB --mem-type=LPDDR5_6400_1x16_BG_BL32 --kernel=/u/sgupta45/gem5-SALAM/benchmarks/scheduler/sw/bin_comb_3/canny_1_deblur_1_gru_0_harris_1_lstm_0_LAX.elf --vans-config-path=/u/sgupta45/VANS/config --disk-image=/u/sgupta45/gem5-SALAM/baremetal/common/fake.iso --machine-type=VExpress_GEM5_V1 --dtb-file=none --bare-metal --cpu-type=ex5_LITTLE --cpu-clock=1.6GHz --accpath=/u/sgupta45/gem5-SALAM/benchmarks --caches --cacheline_size=64 --l1d_size=32kB --l1d_assoc=4 --l1i_size=32kB --l1i_assoc=2

Global frequency set at 1000000000000 ticks per second
Cycle Counts Loaded!
Cycle Counts Loaded!
Cycle Counts Loaded!
Cycle Counts Loaded!
Cycle Counts Loaded!
Cycle Counts Loaded!
Cycle Counts Loaded!
Cycle Counts Loaded!
Cycle Counts Loaded!
Cycle Counts Loaded!
Cycle Counts Loaded!
**** REAL SIMULATION ****
136820625: global: Timer #2 started at tick 136820625
137625625: global: Timer #2 stopped at tick 137625625. Duration: 805000
139721250: global: Timer #2 started at tick 139721250
140050625: global: Timer #2 stopped at tick 140050625. Duration: 329375
140508750: global: Timer #2 started at tick 140508750
140939375: global: Timer #2 stopped at tick 140939375. Duration: 430625
145965875: system.acctest.isp0_dma: SRC:0x000000008210dec0, DST:0x0000000027000020, LEN:16900
146530000: global: Number of accelerators running = 1
149144875: system.acctest.isp0_dma: Transfer completed in 3.179 us
149610625: global: Timer #0 started at tick 149610625
149995625: global: Timer #1 started at tick 149995625
150752500: global: Timer #1 stopped at tick 150752500. Duration: 756875
152971250: global: Timer #0 stopped at tick 152971250. Duration: 3360625
152990000: global: Number of accelerators running = 1
********************************************************************************
system.acctest.isp0.compute
   ========= Performance Analysis =============
   Setup Time:                      0.272455seconds
   Simulation Time:                 518.951seconds
   System Clock:                    1GHz
   Transistor Latency:              1ns
   Runtime:                         34882 cycles
   Runtime:                         34.882 us
   Stalls:                          1 cycles
   Executed Nodes:                  34880 cycles

********************************************************************************
   ========= Performance Analysis =================
   Setup Time:                      2.72455e+08ns
   Simulation Time:                 5.18951e+11ns
   System Clock:                    1GHz
   Transistor Latency:              0ns
   Runtime:                         34882 cycles
   Runtime:                         3.4882e-06 seconds
   Stalls:                          1 cycles
       Load Only:                   0 cycles
       Store Only:                  1 cycles
       Compute Only:                0 cycles
       Compute & Store:             0 cycles
       Load & Store:                0 cycles
       Load & Compute:              0 cycles
       Load & Compute & Store:      0 cycles
   Executed Nodes:                  34880 cycles
       Load Only:                   0 cycles
       Store Only:                  1 cycles
       Compute Only:                3453 cycles
       Compute & Store:             19014 cycles
       Load & Store:                0 cycles
       Load & Compute:              2467 cycles
       Load & Compute & Store:      9945 cycles

   ========= Runtime FU's ========= (Max | Avg) ===
   Counter FU's:                      10 | 0.118075
   Integer Add/Sub FU's:              76 | 0.082082
   Integer Mul/Div FU's:              11 | 0.043888
   Integer Shifter FU's:              42 | 0.055974
   Integer Bitwise FU's:               4 | 0.059443
   Floating Point Float Add/Sub:      53 | 0.116839
   Floating Point Double Add/Sub:      0 | 0.000000
   Floating Point Float Mul/Div:      76 | 0.625626
   Floating Point Double Mul/Div:      0 | 0.000000
   0 Cycle Compare FU's:              85 | 0.664984
   GEP Instruction FU's:              33 | 0.117424
   Type Conversion FU's:             110 | 0.379700

   ========= Static FU's ==========================
   Counter FU's:                    0
   Integer Add/Sub FU's:            0
   Integer Mul/Div FU's:            0
   Integer Shifter FU's:            0
   Integer Bitwise FU's:            0
   Floating Point Float Add/Sub:    0
   Floating Point Double Add/Sub:   0
   Floating Point Float Mul/Div:    0
   Floating Point Double Mul/Div:   0
   0 Cycle Compare FU's:            0
   GEP Instruction FU's:            0
   Type Conversion FU's:            0
   Other:                           0

   ========= Pipeline Register Usage =============
   Total Number of Registers:       1620
   Max Register Usage Per Cycle:    151
   Avg Register Usage Per Cycle:    58.744711
   Avg Register Size (Bytes):       5.073357

   ========= Memory Configuration =================
   Cache Bus Ports:                 0
   Shared Cache Size:               0kB
   Local Bus Ports:                 0
   Private SPM Size:                112kB
   Private Read Ports:              0
   Private Write Ports:             0
   Private Read Bus Width:          64
   Private Write Bus Width:         64
       Memory Reads:                0
       Memory Writes:               0
   ========= Power Analysis ======================
   FU Leakage Power:                1.637787 mW 
   FU Dynamic Power:                9.655087 mW 
   FU Total Power:                  11.292874 mW 

   Registers Leakage Power:          0.021654 mW 
   Registers Dynamic Power:          3.085961 mW 
       Register Reads (Bits):        2049133
       Register Writes (Bits):       2049168
   Registers Total Power:            3.107615 mW

   SPM Leakage Power:               0.061081 mW
   SPM Read Dynamic Power:          11.103730 mW
   SPM Write Dynamic Power:         7.385230 mW
   SPM Total Power:                 18.550041 mW

   Cache Leakage Power:             0.000000 mW
   Cache Read Dynamic Power:        0.000000 mW
   Cache Write Dynamic Power:       0.000000 mW
   Cache Total Power:               0.000000 mW

   Accelerator Power:               14.400490 mW
   Accelerator Power (SPM):         32.950531 mW
   Accelerator Power (Cache):       14.400490 mW

   ========= Area Analysis =======================
   FU Area:                         176023.796875 um^2 (0.176024 mm^2)
   Register Area:                   1760.064941 um^2 (0.001760 mm^2)
   SPM Area:                        2165.394891 um^2 (0.002165 mm^2)
   Cache Area:                      0.000000 um^2 (0.000000 mm^2)

   Accelerator Area:                177783.859375 um^2 (0.177784 mm^2)
   Accelerator Area (SPM):          179949.254266 um^2 (0.179949 mm^2)
   Accelerator Area (Cache):        177783.859375 um^2 (0.177784 mm^2)

   ========= SPM Resizing  =======================
   SPM Optimized Leakage Power:     0.005964 mW
   SPM Opt Area:                    422.108128 um^2

187342500: global: Timer #0 started at tick 187342500
187701250: global: Timer #2 started at tick 187701250
188383125: global: Timer #2 stopped at tick 188383125. Duration: 681875
189130000: global: DAG ID = 1
189149375: global: Node ID = 0
189167500: global: Node deadline difference = -247
189229375: global: Predicted memory time / byte = 0 us/byte
189247500: global: Predicted memory time = 0 us
189265625: global: Predicted memory time / byte = 0 us/byte
189283750: global: Predicted memory time = 0 us
189301875: global: Predicted memory time / byte = 0.000223195 us/byte
189363125: global: Predicted memory time = 3 us
189381250: global: Predicted memory time / byte = 0 us/byte
189399375: global: Predicted memory time = 0 us
190623750: system.acctest.grayscale0_dma: SRC:0x0000000027004224, DST:0x0000000025000020, LEN:49152
195343000: system.acctest.isp0_dma: SRC:0x0000000082018900, DST:0x0000000027000020, LEN:16900
195577500: global: Timer #0 stopped at tick 195577500. Duration: 8235000
195591875: global: Number of accelerators running = 2
198642000: system.acctest.isp0_dma: Transfer completed in 3.299 us
198731875: global: Timer #0 started at tick 198731875
198861875: global: Timer #1 started at tick 198861875
199054375: global: Timer #1 stopped at tick 199054375. Duration: 192500
200187750: system.acctest.grayscale0_dma: Transfer completed in 9.564 us
200265000: global: Timer #0 stopped at tick 200265000. Duration: 1533125
200279375: global: Number of accelerators running = 2
200448750: global: Timer #0 started at tick 200448750
200580000: global: Timer #1 started at tick 200580000
200770000: global: Timer #1 stopped at tick 200770000. Duration: 190000
202261250: global: Timer #0 stopped at tick 202261250. Duration: 1812500
202275625: global: Number of accelerators running = 2
********************************************************************************
system.acctest.grayscale0.compute
   ========= Performance Analysis =============
   Setup Time:                      0.012512seconds
   Simulation Time:                 407.426110seconds
   System Clock:                    1.000000GHz
   Transistor Latency:              1ns
   Runtime:                         10263 cycles
   Runtime:                         10.263000 us
   Stalls:                          1 cycles
   Executed Nodes:                  10261 cycles

********************************************************************************
   ========= Performance Analysis =================
   Setup Time:                      12511884.000000ns
   Simulation Time:                 407426109637.000000ns
   System Clock:                    1.000000GHz
   Transistor Latency:              0ns
   Runtime:                         10263 cycles
   Runtime:                         0.000001 seconds
   Stalls:                          1 cycles
       Load Only:                   0 cycles
       Store Only:                  1 cycles
       Compute Only:                0 cycles
       Compute & Store:             0 cycles
       Load & Store:                0 cycles
       Load & Compute:              0 cycles
       Load & Compute & Store:      0 cycles
   Executed Nodes:                  10261 cycles
       Load Only:                   0 cycles
       Store Only:                  1 cycles
       Compute Only:                88 cycles
       Compute & Store:             344 cycles
       Load & Store:                0 cycles
       Load & Compute:              1981 cycles
       Load & Compute & Store:      7847 cycles

   ========= Runtime FU's ========= (Max | Avg) ===
   Counter FU's:                      24 | 0.199556
   Integer Add/Sub FU's:               0 | 0.000000
   Integer Mul/Div FU's:               8 | 0.199552
   Integer Shifter FU's:               0 | 0.000000
   Integer Bitwise FU's:               1 | 0.000097
   Floating Point Float Add/Sub:      49 | 0.114264
   Floating Point Double Add/Sub:      0 | 0.000000
   Floating Point Float Mul/Div:      42 | 0.114129
   Floating Point Double Mul/Div:      0 | 0.000000
   0 Cycle Compare FU's:               9 | 0.066626
   GEP Instruction FU's:              36 | 0.177452
   Type Conversion FU's:              76 | 0.401969

   ========= Static FU's ==========================
   Counter FU's:                    0
   Integer Add/Sub FU's:            0
   Integer Mul/Div FU's:            0
   Integer Shifter FU's:            0
   Integer Bitwise FU's:            0
   Floating Point Float Add/Sub:    0
   Floating Point Double Add/Sub:   0
   Floating Point Float Mul/Div:    0
   Floating Point Double Mul/Div:   0
   0 Cycle Compare FU's:            0
   GEP Instruction FU's:            0
   Type Conversion FU's:            0
   Other:                           0

   ========= Pipeline Register Usage =============
   Total Number of Registers:       235
   Max Register Usage Per Cycle:    90
   Avg Register Usage Per Cycle:    33.924291
   Avg Register Size (Bytes):       5.841147

   ========= Memory Configuration =================
   Cache Bus Ports:                 0
   Shared Cache Size:               0kB
   Local Bus Ports:                 0
   Private SPM Size:                176kB
   Private Read Ports:              0
   Private Write Ports:             0
   Private Read Bus Width:          64
   Private Write Bus Width:         64
       Memory Reads:                0
       Memory Writes:               0
   ========= Power Analysis ======================
   FU Leakage Power:                1.178269 mW 
   FU Dynamic Power:                0.617392 mW 
   FU Total Power:                  1.795662 mW 

   Registers Leakage Power:          0.014185 mW 
   Registers Dynamic Power:          0.101057 mW 
       Register Reads (Bits):        348165
       Register Writes (Bits):       348168
   Registers Total Power:            0.115242 mW

   SPM Leakage Power:               0.089881 mW
   SPM Read Dynamic Power:          6.997296 mW
   SPM Write Dynamic Power:         2.062375 mW
   SPM Total Power:                 9.149552 mW

   Cache Leakage Power:             0.000000 mW
   Cache Read Dynamic Power:        0.000000 mW
   Cache Write Dynamic Power:       0.000000 mW
   Cache Total Power:               0.000000 mW

   Accelerator Power:               1.910904 mW
   Accelerator Power (SPM):         11.060456 mW
   Accelerator Power (Cache):       1.910904 mW

   ========= Area Analysis =======================
   FU Area:                         143348.187500 um^2 (0.143348 mm^2)
   Register Area:                   1152.968140 um^2 (0.001153 mm^2)
   SPM Area:                        3573.642862 um^2 (0.003574 mm^2)
   Cache Area:                      0.000000 um^2 (0.000000 mm^2)

   Accelerator Area:                144501.156250 um^2 (0.144501 mm^2)
   Accelerator Area (SPM):          148074.799112 um^2 (0.148075 mm^2)
   Accelerator Area (Cache):        144501.156250 um^2 (0.144501 mm^2)

   ========= SPM Resizing  =======================
   SPM Optimized Leakage Power:     0.003633 mW
   SPM Opt Area:                    364.024374 um^2

212200000: global: Timer #0 started at tick 212200000
212373125: global: Timer #2 started at tick 212373125
212603750: global: Timer #2 stopped at tick 212603750. Duration: 230625
226076625: system.acctest.grayscale0_dma: SRC:0x000000002500c020, DST:0x000000008211e280, LEN:65536
227939000: system.acctest.convolution0_dma: SRC:0x000000002500c020, DST:0x0000000022000020, LEN:65536
228334375: global: Timer #0 stopped at tick 228334375. Duration: 16134375
228348750: global: Number of accelerators running = 3
********************************************************************************
system.acctest.isp0.compute
   ========= Performance Analysis =============
   Setup Time:                      0.534767seconds
   Simulation Time:                 1020.729577seconds
   System Clock:                    1.000000GHz
   Transistor Latency:              1ns
   Runtime:                         34883 cycles
   Runtime:                         34.883000 us
   Stalls:                          1 cycles
   Executed Nodes:                  34881 cycles

********************************************************************************
   ========= Performance Analysis =================
   Setup Time:                      534766884.000000ns
   Simulation Time:                 1020729576510.000000ns
   System Clock:                    1.000000GHz
   Transistor Latency:              0ns
   Runtime:                         34883 cycles
   Runtime:                         0.000003 seconds
   Stalls:                          1 cycles
       Load Only:                   0 cycles
       Store Only:                  1 cycles
       Compute Only:                0 cycles
       Compute & Store:             0 cycles
       Load & Store:                0 cycles
       Load & Compute:              0 cycles
       Load & Compute & Store:      0 cycles
   Executed Nodes:                  34881 cycles
       Load Only:                   0 cycles
       Store Only:                  1 cycles
       Compute Only:                3464 cycles
       Compute & Store:             19000 cycles
       Load & Store:                0 cycles
       Load & Compute:              2488 cycles
       Load & Compute & Store:      9928 cycles

   ========= Runtime FU's ========= (Max | Avg) ===
   Counter FU's:                      10 | 0.118072
   Integer Add/Sub FU's:              68 | 0.091698
   Integer Mul/Div FU's:              11 | 0.043887
   Integer Shifter FU's:              45 | 0.052264
   Integer Bitwise FU's:               4 | 0.059442
   Floating Point Float Add/Sub:      50 | 0.123644
   Floating Point Double Add/Sub:      0 | 0.000000
   Floating Point Float Mul/Div:      76 | 0.625254
   Floating Point Double Mul/Div:      0 | 0.000000
   0 Cycle Compare FU's:              85 | 0.665361
   GEP Instruction FU's:              33 | 0.117421
   Type Conversion FU's:             111 | 0.376424

   ========= Static FU's ==========================
   Counter FU's:                    0
   Integer Add/Sub FU's:            0
   Integer Mul/Div FU's:            0
   Integer Shifter FU's:            0
   Integer Bitwise FU's:            0
   Floating Point Float Add/Sub:    0
   Floating Point Double Add/Sub:   0
   Floating Point Float Mul/Div:    0
   Floating Point Double Mul/Div:   0
   0 Cycle Compare FU's:            0
   GEP Instruction FU's:            0
   Type Conversion FU's:            0
   Other:                           0

   ========= Pipeline Register Usage =============
   Total Number of Registers:       1620
   Max Register Usage Per Cycle:    150
   Avg Register Usage Per Cycle:    58.743027
   Avg Register Size (Bytes):       5.073357

   ========= Memory Configuration =================
   Cache Bus Ports:                 0
   Shared Cache Size:               0kB
   Local Bus Ports:                 0
   Private SPM Size:                112kB
   Private Read Ports:              0
   Private Write Ports:             0
   Private Read Bus Width:          64
   Private Write Bus Width:         64
       Memory Reads:                0
       Memory Writes:               0
   ========= Power Analysis ======================
   FU Leakage Power:                1.578062 mW 
   FU Dynamic Power:                9.649071 mW 
   FU Total Power:                  11.227133 mW 

   Registers Leakage Power:          0.021654 mW 
   Registers Dynamic Power:          3.086050 mW 
       Register Reads (Bits):        2049133
       Register Writes (Bits):       2049168
   Registers Total Power:            3.107704 mW

   SPM Leakage Power:               0.061081 mW
   SPM Read Dynamic Power:          15.102444 mW
   SPM Write Dynamic Power:         10.618341 mW
   SPM Total Power:                 25.781867 mW

   Cache Leakage Power:             0.000000 mW
   Cache Read Dynamic Power:        0.000000 mW
   Cache Write Dynamic Power:       0.000000 mW
   Cache Total Power:               0.000000 mW

   Accelerator Power:               14.334837 mW
   Accelerator Power (SPM):         40.116704 mW
   Accelerator Power (Cache):       14.334837 mW

   ========= Area Analysis =======================
   FU Area:                         170581.953125 um^2 (0.170582 mm^2)
   Register Area:                   1760.064941 um^2 (0.001760 mm^2)
   SPM Area:                        2165.394891 um^2 (0.002165 mm^2)
   Cache Area:                      0.000000 um^2 (0.000000 mm^2)

   Accelerator Area:                172342.015625 um^2 (0.172342 mm^2)
   Accelerator Area (SPM):          174507.410516 um^2 (0.174507 mm^2)
   Accelerator Area (Cache):        172342.015625 um^2 (0.172342 mm^2)

   ========= SPM Resizing  =======================
   SPM Optimized Leakage Power:     0.005889 mW
   SPM Opt Area:                    420.258807 um^2

234951875: global: Timer #0 started at tick 234951875
235271875: global: Timer #2 started at tick 235271875
235487500: global: Timer #2 stopped at tick 235487500. Duration: 215625
236888625: system.acctest.grayscale0_dma: Transfer completed in 10.812 us
241310000: system.acctest.convolution0_dma: Transfer completed in 13.371 us
245630875: system.acctest.isp0_dma: SRC:0x0000000027010224, DST:0x000000008201cb40, LEN:49152
246040000: global: Timer #0 stopped at tick 246040000. Duration: 11088125
246054375: global: Number of accelerators running = 3
246168750: global: Timer #0 started at tick 246168750
246490625: global: Timer #1 started at tick 246490625
247015625: global: Timer #1 stopped at tick 247015625. Duration: 525000
247435000: global: DAG ID = 1
247497500: global: Node ID = 1
247569375: global: Node deadline difference = -226
247589375: global: Predicted memory time / byte = 0.000223195 us/byte
247607500: global: Predicted memory time = 25.5978 us
247625625: global: Predicted memory time / byte = 0.000223195 us/byte
247643750: global: Predicted memory time = 25.5978 us
247661875: global: Predicted memory time / byte = 0.000198995 us/byte
247680000: global: Predicted memory time = 9 us
247698125: global: Predicted memory time / byte = 0.000307327 us/byte
247716250: global: Predicted memory time = 20 us
251100875: system.acctest.isp0_dma: Transfer completed in 5.47 us
258346625: system.acctest.grayscale0_dma: SRC:0x000000008201cb40, DST:0x0000000025000020, LEN:49152
258564375: global: Timer #0 stopped at tick 258564375. Duration: 12395625
258578750: global: Number of accelerators running = 3
258748125: global: Timer #0 started at tick 258748125
258882500: global: Timer #1 started at tick 258882500
259055625: global: Timer #1 stopped at tick 259055625. Duration: 173125
260757375: system.acctest.convolution0_dma: SRC:0x00000000820cdc00, DST:0x0000000022030020, LEN:100
260894375: system.acctest.convolution0_dma: Transfer completed in 0.137 us
261013125: global: Timer #0 stopped at tick 261013125. Duration: 2265000
261027500: global: Number of accelerators running = 3
261208125: global: Timer #0 started at tick 261208125
261255625: global: Timer #1 started at tick 261255625
261461875: global: Timer #1 stopped at tick 261461875. Duration: 206250
261826250: global: DAG ID = 0
261840000: global: Node ID = 0
261859375: global: Node deadline difference = -13444
261871875: global: Predicted memory time / byte = 0 us/byte
261884375: global: Predicted memory time = 0 us
261896875: global: Predicted memory time / byte = 0.000223195 us/byte
261909375: global: Predicted memory time = 14.7425 us
261921875: global: Predicted memory time / byte = 0.000200769 us/byte
261934375: global: Predicted memory time = 3 us
261946875: global: Predicted memory time / byte = 0.000314901 us/byte
261959375: global: Predicted memory time = 15 us
266056000: system.acctest.isp0_dma: SRC:0x0000000082130040, DST:0x0000000027000020, LEN:16900
266241250: global: Timer #0 stopped at tick 266241250. Duration: 5033125
266255625: global: Number of accelerators running = 3
266420625: global: Timer #0 started at tick 266420625
267567625: system.acctest.grayscale0_dma: Transfer completed in 9.221 us
267933125: global: Timer #0 stopped at tick 267933125. Duration: 1512500
267947500: global: Number of accelerators running = 3
268063125: global: Timer #0 started at tick 268063125
268105625: global: Timer #1 started at tick 268105625
268298125: global: Timer #1 stopped at tick 268298125. Duration: 192500
269364375: global: Timer #0 stopped at tick 269364375. Duration: 1301250
269378750: global: Number of accelerators running = 3
269455000: system.acctest.isp0_dma: Transfer completed in 3.399 us
269565625: global: Timer #0 started at tick 269565625
269712500: global: Timer #1 started at tick 269712500
269896875: global: Timer #1 stopped at tick 269896875. Duration: 184375
271038750: global: Timer #0 stopped at tick 271038750. Duration: 1473125
271053125: global: Number of accelerators running = 3
********************************************************************************
system.acctest.grayscale0.compute
   ========= Performance Analysis =============
   Setup Time:                      0.017603seconds
   Simulation Time:                 450.262695seconds
   System Clock:                    1.000000GHz
   Transistor Latency:              1ns
   Runtime:                         10263 cycles
   Runtime:                         10.263000 us
   Stalls:                          1 cycles
   Executed Nodes:                  10261 cycles

********************************************************************************
   ========= Performance Analysis =================
   Setup Time:                      17602734.000000ns
   Simulation Time:                 450262694531.000000ns
   System Clock:                    1.000000GHz
   Transistor Latency:              0ns
   Runtime:                         10263 cycles
   Runtime:                         0.000001 seconds
   Stalls:                          1 cycles
       Load Only:                   0 cycles
       Store Only:                  1 cycles
       Compute Only:                0 cycles
       Compute & Store:             0 cycles
       Load & Store:                0 cycles
       Load & Compute:              0 cycles
       Load & Compute & Store:      0 cycles
   Executed Nodes:                  10261 cycles
       Load Only:                   0 cycles
       Store Only:                  1 cycles
       Compute Only:                88 cycles
       Compute & Store:             344 cycles
       Load & Store:                0 cycles
       Load & Compute:              1981 cycles
       Load & Compute & Store:      7847 cycles

   ========= Runtime FU's ========= (Max | Avg) ===
   Counter FU's:                      24 | 0.199556
   Integer Add/Sub FU's:               0 | 0.000000
   Integer Mul/Div FU's:               8 | 0.199552
   Integer Shifter FU's:               0 | 0.000000
   Integer Bitwise FU's:               1 | 0.000097
   Floating Point Float Add/Sub:      49 | 0.114264
   Floating Point Double Add/Sub:      0 | 0.000000
   Floating Point Float Mul/Div:      42 | 0.114129
   Floating Point Double Mul/Div:      0 | 0.000000
   0 Cycle Compare FU's:               9 | 0.066626
   GEP Instruction FU's:              36 | 0.177452
   Type Conversion FU's:              76 | 0.401969

   ========= Static FU's ==========================
   Counter FU's:                    0
   Integer Add/Sub FU's:            0
   Integer Mul/Div FU's:            0
   Integer Shifter FU's:            0
   Integer Bitwise FU's:            0
   Floating Point Float Add/Sub:    0
   Floating Point Double Add/Sub:   0
   Floating Point Float Mul/Div:    0
   Floating Point Double Mul/Div:   0
   0 Cycle Compare FU's:            0
   GEP Instruction FU's:            0
   Type Conversion FU's:            0
   Other:                           0

   ========= Pipeline Register Usage =============
   Total Number of Registers:       235
   Max Register Usage Per Cycle:    90
   Avg Register Usage Per Cycle:    33.924291
   Avg Register Size (Bytes):       5.841147

   ========= Memory Configuration =================
   Cache Bus Ports:                 0
   Shared Cache Size:               0kB
   Local Bus Ports:                 0
   Private SPM Size:                176kB
   Private Read Ports:              0
   Private Write Ports:             0
   Private Read Bus Width:          64
   Private Write Bus Width:         64
       Memory Reads:                0
       Memory Writes:               0
   ========= Power Analysis ======================
   FU Leakage Power:                1.178269 mW 
   FU Dynamic Power:                0.617392 mW 
   FU Total Power:                  1.795662 mW 

   Registers Leakage Power:          0.014185 mW 
   Registers Dynamic Power:          0.101057 mW 
       Register Reads (Bits):        348165
       Register Writes (Bits):       348168
   Registers Total Power:            0.115242 mW

   SPM Leakage Power:               0.089881 mW
   SPM Read Dynamic Power:          10.232207 mW
   SPM Write Dynamic Power:         5.980668 mW
   SPM Total Power:                 16.302756 mW

   Cache Leakage Power:             0.000000 mW
   Cache Read Dynamic Power:        0.000000 mW
   Cache Write Dynamic Power:       0.000000 mW
   Cache Total Power:               0.000000 mW

   Accelerator Power:               1.910904 mW
   Accelerator Power (SPM):         18.213660 mW
   Accelerator Power (Cache):       1.910904 mW

   ========= Area Analysis =======================
   FU Area:                         143348.187500 um^2 (0.143348 mm^2)
   Register Area:                   1152.968140 um^2 (0.001153 mm^2)
   SPM Area:                        3573.642862 um^2 (0.003574 mm^2)
   Cache Area:                      0.000000 um^2 (0.000000 mm^2)

   Accelerator Area:                144501.156250 um^2 (0.144501 mm^2)
   Accelerator Area (SPM):          148074.799112 um^2 (0.148075 mm^2)
   Accelerator Area (Cache):        144501.156250 um^2 (0.144501 mm^2)

   ========= SPM Resizing  =======================
   SPM Optimized Leakage Power:     0.003633 mW
   SPM Opt Area:                    364.024374 um^2

279483125: global: Timer #0 started at tick 279483125
279800000: global: Timer #2 started at tick 279800000
280043750: global: Timer #2 stopped at tick 280043750. Duration: 243750
293226625: system.acctest.grayscale0_dma: SRC:0x000000002500c020, DST:0x0000000082028cc0, LEN:65536
293603125: global: Timer #0 stopped at tick 293603125. Duration: 14120000
293617500: global: Number of accelerators running = 3
299548625: system.acctest.grayscale0_dma: Transfer completed in 6.322 us
299633750: global: Timer #0 started at tick 299633750
299681250: global: Timer #1 started at tick 299681250
299833125: global: Timer #1 stopped at tick 299833125. Duration: 151875
300157500: global: DAG ID = 0
300171250: global: Node ID = 1
300190625: global: Node deadline difference = -13442
300203125: global: Predicted memory time / byte = 0.000198995 us/byte
300215625: global: Predicted memory time = 22.8223 us
300228125: global: Predicted memory time / byte = 0.000307327 us/byte
300240625: global: Predicted memory time = 35.2467 us
300253125: global: Predicted memory time / byte = 0.000195984 us/byte
300265625: global: Predicted memory time = 9 us
300278125: global: Predicted memory time / byte = 9.63898e-05 us/byte
300290625: global: Predicted memory time = 6 us
300402500: global: Timer #0 stopped at tick 300402500. Duration: 768750
300416875: global: Number of accelerators running = 2
********************************************************************************
system.acctest.isp0.compute
   ========= Performance Analysis =============
   Setup Time:                      0.369601seconds
   Simulation Time:                 1215.384172seconds
   System Clock:                    1.000000GHz
   Transistor Latency:              1ns
   Runtime:                         34882 cycles
   Runtime:                         34.882000 us
   Stalls:                          1 cycles
   Executed Nodes:                  34880 cycles

********************************************************************************
   ========= Performance Analysis =================
   Setup Time:                      369601399.000000ns
   Simulation Time:                 1215384171843.000000ns
   System Clock:                    1.000000GHz
   Transistor Latency:              0ns
   Runtime:                         34882 cycles
   Runtime:                         0.000003 seconds
   Stalls:                          1 cycles
       Load Only:                   0 cycles
       Store Only:                  1 cycles
       Compute Only:                0 cycles
       Compute & Store:             0 cycles
       Load & Store:                0 cycles
       Load & Compute:              0 cycles
       Load & Compute & Store:      0 cycles
   Executed Nodes:                  34880 cycles
       Load Only:                   0 cycles
       Store Only:                  1 cycles
       Compute Only:                3453 cycles
       Compute & Store:             19014 cycles
       Load & Store:                0 cycles
       Load & Compute:              2467 cycles
       Load & Compute & Store:      9945 cycles

   ========= Runtime FU's ========= (Max | Avg) ===
   Counter FU's:                      10 | 0.118075
   Integer Add/Sub FU's:              76 | 0.082082
   Integer Mul/Div FU's:              11 | 0.043888
   Integer Shifter FU's:              42 | 0.055974
   Integer Bitwise FU's:               4 | 0.059443
   Floating Point Float Add/Sub:      53 | 0.116839
   Floating Point Double Add/Sub:      0 | 0.000000
   Floating Point Float Mul/Div:      76 | 0.625626
   Floating Point Double Mul/Div:      0 | 0.000000
   0 Cycle Compare FU's:              85 | 0.664984
   GEP Instruction FU's:              33 | 0.117424
   Type Conversion FU's:             110 | 0.379700

   ========= Static FU's ==========================
   Counter FU's:                    0
   Integer Add/Sub FU's:            0
   Integer Mul/Div FU's:            0
   Integer Shifter FU's:            0
   Integer Bitwise FU's:            0
   Floating Point Float Add/Sub:    0
   Floating Point Double Add/Sub:   0
   Floating Point Float Mul/Div:    0
   Floating Point Double Mul/Div:   0
   0 Cycle Compare FU's:            0
   GEP Instruction FU's:            0
   Type Conversion FU's:            0
   Other:                           0

   ========= Pipeline Register Usage =============
   Total Number of Registers:       1620
   Max Register Usage Per Cycle:    151
   Avg Register Usage Per Cycle:    58.744711
   Avg Register Size (Bytes):       5.073357

   ========= Memory Configuration =================
   Cache Bus Ports:                 0
   Shared Cache Size:               0kB
   Local Bus Ports:                 0
   Private SPM Size:                112kB
   Private Read Ports:              0
   Private Write Ports:             0
   Private Read Bus Width:          64
   Private Write Bus Width:         64
       Memory Reads:                0
       Memory Writes:               0
   ========= Power Analysis ======================
   FU Leakage Power:                1.637787 mW 
   FU Dynamic Power:                9.655087 mW 
   FU Total Power:                  11.292874 mW 

   Registers Leakage Power:          0.021654 mW 
   Registers Dynamic Power:          3.085961 mW 
       Register Reads (Bits):        2049133
       Register Writes (Bits):       2049168
   Registers Total Power:            3.107615 mW

   SPM Leakage Power:               0.061081 mW
   SPM Read Dynamic Power:          18.884297 mW
   SPM Write Dynamic Power:         13.423581 mW
   SPM Total Power:                 32.368959 mW

   Cache Leakage Power:             0.000000 mW
   Cache Read Dynamic Power:        0.000000 mW
   Cache Write Dynamic Power:       0.000000 mW
   Cache Total Power:               0.000000 mW

   Accelerator Power:               14.400490 mW
   Accelerator Power (SPM):         46.769449 mW
   Accelerator Power (Cache):       14.400490 mW

   ========= Area Analysis =======================
   FU Area:                         176023.796875 um^2 (0.176024 mm^2)
   Register Area:                   1760.064941 um^2 (0.001760 mm^2)
   SPM Area:                        2165.394891 um^2 (0.002165 mm^2)
   Cache Area:                      0.000000 um^2 (0.000000 mm^2)

   Accelerator Area:                177783.859375 um^2 (0.177784 mm^2)
   Accelerator Area (SPM):          179949.254266 um^2 (0.179949 mm^2)
   Accelerator Area (Cache):        177783.859375 um^2 (0.177784 mm^2)

   ========= SPM Resizing  =======================
   SPM Optimized Leakage Power:     0.005964 mW
   SPM Opt Area:                    422.108128 um^2

305788125: global: Timer #0 started at tick 305788125
305968125: global: Timer #2 started at tick 305968125
306155625: global: Timer #2 stopped at tick 306155625. Duration: 187500
306410000: global: DAG ID = 2
306423750: global: Node ID = 0
306436875: global: Node deadline difference = -13861
306449375: global: Predicted memory time / byte = 0 us/byte
306461875: global: Predicted memory time = 0 us
306474375: global: Predicted memory time / byte = 0.000314901 us/byte
306486875: global: Predicted memory time = 20.7998 us
306499375: global: Predicted memory time / byte = 0.000207988 us/byte
306511875: global: Predicted memory time = 3 us
306524375: global: Predicted memory time / byte = 0 us/byte
306536875: global: Predicted memory time = 0 us
307341625: system.acctest.grayscale0_dma: SRC:0x0000000027004224, DST:0x0000000025000020, LEN:49152
307563750: global: Timer #0 stopped at tick 307563750. Duration: 1775625
307578125: global: Number of accelerators running = 2
315042625: system.acctest.grayscale0_dma: Transfer completed in 7.701 us
315117500: global: Timer #0 started at tick 315117500
315244375: global: Timer #1 started at tick 315244375
315428750: global: Timer #1 stopped at tick 315428750. Duration: 184375
316502500: global: Timer #0 stopped at tick 316502500. Duration: 1385000
316516875: global: Number of accelerators running = 2
********************************************************************************
system.acctest.grayscale0.compute
   ========= Performance Analysis =============
   Setup Time:                      0.008692seconds
   Simulation Time:                 243.740844seconds
   System Clock:                    1.000000GHz
   Transistor Latency:              1ns
   Runtime:                         10263 cycles
   Runtime:                         10.263000 us
   Stalls:                          1 cycles
   Executed Nodes:                  10261 cycles

********************************************************************************
   ========= Performance Analysis =================
   Setup Time:                      8692130.000000ns
   Simulation Time:                 243740844098.000000ns
   System Clock:                    1.000000GHz
   Transistor Latency:              0ns
   Runtime:                         10263 cycles
   Runtime:                         0.000001 seconds
   Stalls:                          1 cycles
       Load Only:                   0 cycles
       Store Only:                  1 cycles
       Compute Only:                0 cycles
       Compute & Store:             0 cycles
       Load & Store:                0 cycles
       Load & Compute:              0 cycles
       Load & Compute & Store:      0 cycles
   Executed Nodes:                  10261 cycles
       Load Only:                   0 cycles
       Store Only:                  1 cycles
       Compute Only:                88 cycles
       Compute & Store:             344 cycles
       Load & Store:                0 cycles
       Load & Compute:              1981 cycles
       Load & Compute & Store:      7847 cycles

   ========= Runtime FU's ========= (Max | Avg) ===
   Counter FU's:                      24 | 0.199556
   Integer Add/Sub FU's:               0 | 0.000000
   Integer Mul/Div FU's:               8 | 0.199552
   Integer Shifter FU's:               0 | 0.000000
   Integer Bitwise FU's:               1 | 0.000097
   Floating Point Float Add/Sub:      49 | 0.114264
   Floating Point Double Add/Sub:      0 | 0.000000
   Floating Point Float Mul/Div:      42 | 0.114129
   Floating Point Double Mul/Div:      0 | 0.000000
   0 Cycle Compare FU's:               9 | 0.066626
   GEP Instruction FU's:              36 | 0.177452
   Type Conversion FU's:              76 | 0.401969

   ========= Static FU's ==========================
   Counter FU's:                    0
   Integer Add/Sub FU's:            0
   Integer Mul/Div FU's:            0
   Integer Shifter FU's:            0
   Integer Bitwise FU's:            0
   Floating Point Float Add/Sub:    0
   Floating Point Double Add/Sub:   0
   Floating Point Float Mul/Div:    0
   Floating Point Double Mul/Div:   0
   0 Cycle Compare FU's:            0
   GEP Instruction FU's:            0
   Type Conversion FU's:            0
   Other:                           0

   ========= Pipeline Register Usage =============
   Total Number of Registers:       235
   Max Register Usage Per Cycle:    90
   Avg Register Usage Per Cycle:    33.924291
   Avg Register Size (Bytes):       5.841147

   ========= Memory Configuration =================
   Cache Bus Ports:                 0
   Shared Cache Size:               0kB
   Local Bus Ports:                 0
   Private SPM Size:                176kB
   Private Read Ports:              0
   Private Write Ports:             0
   Private Read Bus Width:          64
   Private Write Bus Width:         64
       Memory Reads:                0
       Memory Writes:               0
   ========= Power Analysis ======================
   FU Leakage Power:                1.178269 mW 
   FU Dynamic Power:                0.617392 mW 
   FU Total Power:                  1.795662 mW 

   Registers Leakage Power:          0.014185 mW 
   Registers Dynamic Power:          0.101057 mW 
       Register Reads (Bits):        348165
       Register Writes (Bits):       348168
   Registers Total Power:            0.115242 mW

   SPM Leakage Power:               0.089881 mW
   SPM Read Dynamic Power:          12.841663 mW
   SPM Write Dynamic Power:         7.385230 mW
   SPM Total Power:                 20.316774 mW

   Cache Leakage Power:             0.000000 mW
   Cache Read Dynamic Power:        0.000000 mW
   Cache Write Dynamic Power:       0.000000 mW
   Cache Total Power:               0.000000 mW

   Accelerator Power:               1.910904 mW
   Accelerator Power (SPM):         22.227678 mW
   Accelerator Power (Cache):       1.910904 mW

   ========= Area Analysis =======================
   FU Area:                         143348.187500 um^2 (0.143348 mm^2)
   Register Area:                   1152.968140 um^2 (0.001153 mm^2)
   SPM Area:                        3573.642862 um^2 (0.003574 mm^2)
   Cache Area:                      0.000000 um^2 (0.000000 mm^2)

   Accelerator Area:                144501.156250 um^2 (0.144501 mm^2)
   Accelerator Area (SPM):          148074.799112 um^2 (0.148075 mm^2)
   Accelerator Area (Cache):        144501.156250 um^2 (0.144501 mm^2)

   ========= SPM Resizing  =======================
   SPM Optimized Leakage Power:     0.003633 mW
   SPM Opt Area:                    364.024374 um^2

326598750: global: Timer #0 started at tick 326598750
326771875: global: Timer #2 started at tick 326771875
327178125: global: Timer #2 stopped at tick 327178125. Duration: 406250
327213750: global: Timer #2 started at tick 327213750
327498125: global: Timer #2 stopped at tick 327498125. Duration: 284375
340680875: system.acctest.grayscale0_dma: SRC:0x000000002500c020, DST:0x0000000082140400, LEN:65536
341051875: global: Timer #0 stopped at tick 341051875. Duration: 14453125
341066250: global: Number of accelerators running = 2
347044875: system.acctest.grayscale0_dma: Transfer completed in 6.364 us
347125000: global: Timer #0 started at tick 347125000
347172500: global: Timer #1 started at tick 347172500
347326250: global: Timer #1 stopped at tick 347326250. Duration: 153750
347641250: global: DAG ID = 2
347655000: global: Node ID = 1
347674375: global: Node deadline difference = -13857
347686875: global: Predicted memory time / byte = 9.63898e-05 us/byte
347699375: global: Predicted memory time = 11.0547 us
347711875: global: Predicted memory time / byte = 9.63898e-05 us/byte
347724375: global: Predicted memory time = 11.0547 us
347736875: global: Predicted memory time / byte = 0.000157227 us/byte
347749375: global: Predicted memory time = 7 us
347761875: global: Predicted memory time / byte = 9.69696e-05 us/byte
347774375: global: Predicted memory time = 6 us
347883125: global: Timer #0 stopped at tick 347883125. Duration: 758125
347897500: global: Number of accelerators running = 1
********************************************************************************
system.acctest.convolution0.compute
   ========= Performance Analysis =============
   Setup Time:                      1.011986seconds
   Simulation Time:                 1972.863870seconds
   System Clock:                    1.000000GHz
   Transistor Latency:              1ns
   Runtime:                         1545605 cycles
   Runtime:                         1545.605000 us
   Stalls:                          0 cycles
   Executed Nodes:                  1545604 cycles

********************************************************************************
   ========= Performance Analysis =================
   Setup Time:                      1011985565.000000ns
   Simulation Time:                 1972863869597.000000ns
   System Clock:                    1.000000GHz
   Transistor Latency:              0ns
   Runtime:                         1545605 cycles
   Runtime:                         0.000155 seconds
   Stalls:                          0 cycles
       Load Only:                   0 cycles
       Store Only:                  0 cycles
       Compute Only:                0 cycles
       Compute & Store:             0 cycles
       Load & Store:                0 cycles
       Load & Compute:              0 cycles
       Load & Compute & Store:      0 cycles
   Executed Nodes:                  1545604 cycles
       Load Only:                   0 cycles
       Store Only:                  0 cycles
       Compute Only:                1127274 cycles
       Compute & Store:             16374 cycles
       Load & Store:                0 cycles
       Load & Compute:              401946 cycles
       Load & Compute & Store:      10 cycles

   ========= Runtime FU's ========= (Max | Avg) ===
   Counter FU's:                       3 | 0.112298
   Integer Add/Sub FU's:               4 | 0.211564
   Integer Mul/Div FU's:               1 | 0.052505
   Integer Shifter FU's:              10 | 0.005268
   Integer Bitwise FU's:               2 | 0.184266
   Floating Point Float Add/Sub:       5 | 0.207991
   Floating Point Double Add/Sub:      0 | 0.000000
   Floating Point Float Mul/Div:       2 | 0.130117
   Floating Point Double Mul/Div:      0 | 0.000000
   0 Cycle Compare FU's:              40 | 0.145956
   GEP Instruction FU's:               4 | 0.132683
   Type Conversion FU's:               7 | 0.186618

   ========= Static FU's ==========================
   Counter FU's:                    0
   Integer Add/Sub FU's:            0
   Integer Mul/Div FU's:            0
   Integer Shifter FU's:            0
   Integer Bitwise FU's:            0
   Floating Point Float Add/Sub:    0
   Floating Point Double Add/Sub:   0
   Floating Point Float Mul/Div:    0
   Floating Point Double Mul/Div:   0
   0 Cycle Compare FU's:            0
   GEP Instruction FU's:            0
   Type Conversion FU's:            0
   Other:                           0

   ========= Pipeline Register Usage =============
   Total Number of Registers:       1702
   Max Register Usage Per Cycle:    20
   Avg Register Usage Per Cycle:    6.348199
   Avg Register Size (Bytes):       5.569148

   ========= Memory Configuration =================
   Cache Bus Ports:                 0
   Shared Cache Size:               0kB
   Local Bus Ports:                 0
   Private SPM Size:                192kB
   Private Read Ports:              0
   Private Write Ports:             0
   Private Read Bus Width:          64
   Private Write Bus Width:         64
       Memory Reads:                0
       Memory Writes:               0
   ========= Power Analysis ======================
   FU Leakage Power:                0.196912 mW 
   FU Dynamic Power:                2743.028564 mW 
   FU Total Power:                  2743.225586 mW 

   Registers Leakage Power:          0.002459 mW 
   Registers Dynamic Power:          75.251152 mW 
       Register Reads (Bits):        9811808
       Register Writes (Bits):       10049727
   Registers Total Power:            75.253609 mW

   SPM Leakage Power:               0.078311 mW
   SPM Read Dynamic Power:          11.170319 mW
   SPM Write Dynamic Power:         0.953321 mW
   SPM Total Power:                 12.201951 mW

   Cache Leakage Power:             0.000000 mW
   Cache Read Dynamic Power:        0.000000 mW
   Cache Write Dynamic Power:       0.000000 mW
   Cache Total Power:               0.000000 mW

   Accelerator Power:               2818.479248 mW
   Accelerator Power (SPM):         2830.681199 mW
   Accelerator Power (Cache):       2818.479248 mW

   ========= Area Analysis =======================
   FU Area:                         22931.867188 um^2 (0.022932 mm^2)
   Register Area:                   199.868912 um^2 (0.000200 mm^2)
   SPM Area:                        1748.188735 um^2 (0.001748 mm^2)
   Cache Area:                      0.000000 um^2 (0.000000 mm^2)

   Accelerator Area:                23131.736328 um^2 (0.023132 mm^2)
   Accelerator Area (SPM):          24879.925063 um^2 (0.024880 mm^2)
   Accelerator Area (Cache):        23131.736328 um^2 (0.023132 mm^2)

   ========= SPM Resizing  =======================
   SPM Optimized Leakage Power:     0.002053 mW
   SPM Opt Area:                    145.024971 um^2

1813398125: global: Timer #0 started at tick 1813398125
1813578125: global: Timer #2 started at tick 1813578125
1813783750: global: Timer #2 stopped at tick 1813783750. Duration: 205625
1814050000: global: DAG ID = 1
1814063750: global: Node ID = 2
1814076875: global: Node deadline difference = -235
1814089375: global: Predicted memory time / byte = 0.000198995 us/byte
1814101875: global: Predicted memory time = 26.1026 us
1814114375: global: Predicted memory time / byte = 0.000198995 us/byte
1814126875: global: Predicted memory time = 26.1026 us
1814139375: global: Predicted memory time / byte = 0.000468811 us/byte
1814151875: global: Predicted memory time = 30 us
1814164375: global: Predicted memory time / byte = 0 us/byte
1814176875: global: Predicted memory time = 0 us
1827790875: system.acctest.convolution0_dma: SRC:0x0000000082028cc0, DST:0x0000000022000020, LEN:65536
1839762875: system.acctest.convolution0_dma: Transfer completed in 11.972 us
1842244500: system.acctest.elem_matrix0_dma: SRC:0x000000008211e280, DST:0x0000000024000020, LEN:65536
1842687500: global: Timer #0 stopped at tick 1842687500. Duration: 29289375
1842701875: global: Number of accelerators running = 2
1842863750: global: Timer #0 started at tick 1842863750
1842912500: global: Timer #1 started at tick 1842912500
1843200625: global: Timer #1 stopped at tick 1843200625. Duration: 288125
1844468750: system.acctest.convolution0_dma: SRC:0x0000000082038e40, DST:0x0000000022030020, LEN:100
1844616750: system.acctest.convolution0_dma: Transfer completed in 0.148 us
1844721250: global: Timer #0 stopped at tick 1844721250. Duration: 1857500
1844735625: global: Number of accelerators running = 2
1844858125: global: Timer #0 started at tick 1844858125
1846270625: global: Timer #0 stopped at tick 1846270625. Duration: 1412500
1846285000: global: Number of accelerators running = 2
1854324500: system.acctest.elem_matrix0_dma: Transfer completed in 12.08 us
1854411250: global: Timer #0 started at tick 1854411250
1854460000: global: Timer #1 started at tick 1854460000
1854611250: global: Timer #1 stopped at tick 1854611250. Duration: 151250
1856487375: system.acctest.elem_matrix0_dma: SRC:0x0000000022010020, DST:0x0000000024010020, LEN:65536
1856741250: global: Timer #0 stopped at tick 1856741250. Duration: 2330000
1856755625: global: Number of accelerators running = 2
1866748375: system.acctest.elem_matrix0_dma: Transfer completed in 10.261 us
1866833125: global: Timer #0 started at tick 1866833125
1866973125: global: Timer #1 started at tick 1866973125
1867123125: global: Timer #1 stopped at tick 1867123125. Duration: 150000
1868968750: global: Timer #0 stopped at tick 1868968750. Duration: 2135625
1868983125: global: Number of accelerators running = 2
********************************************************************************
system.acctest.elem_matrix0.compute
   ========= Performance Analysis =============
   Setup Time:                      7.722261seconds
   Simulation Time:                 181.384952seconds
   System Clock:                    1.000000GHz
   Transistor Latency:              1ns
   Runtime:                         10944 cycles
   Runtime:                         10.944000 us
   Stalls:                          1 cycles
   Executed Nodes:                  10942 cycles

********************************************************************************
   ========= Performance Analysis =================
   Setup Time:                      7722261061.000000ns
   Simulation Time:                 181384951648.000000ns
   System Clock:                    1.000000GHz
   Transistor Latency:              0ns
   Runtime:                         10944 cycles
   Runtime:                         0.000001 seconds
   Stalls:                          1 cycles
       Load Only:                   0 cycles
       Store Only:                  1 cycles
       Compute Only:                0 cycles
       Compute & Store:             0 cycles
       Load & Store:                0 cycles
       Load & Compute:              0 cycles
       Load & Compute & Store:      0 cycles
   Executed Nodes:                  10942 cycles
       Load Only:                   0 cycles
       Store Only:                  16 cycles
       Compute Only:                1 cycles
       Compute & Store:             21 cycles
       Load & Store:                0 cycles
       Load & Compute:              18 cycles
       Load & Compute & Store:      10886 cycles

   ========= Runtime FU's ========= (Max | Avg) ===
   Counter FU's:                      32 | 0.046786
   Integer Add/Sub FU's:               0 | 0.000000
   Integer Mul/Div FU's:               0 | 0.000000
   Integer Shifter FU's:               0 | 0.000000
   Integer Bitwise FU's:               1 | 0.000091
   Floating Point Float Add/Sub:       0 | 0.000000
   Floating Point Double Add/Sub:      0 | 0.000000
   Floating Point Float Mul/Div:       0 | 0.000000
   Floating Point Double Mul/Div:      0 | 0.000000
   0 Cycle Compare FU's:             102 | 0.047066
   GEP Instruction FU's:              96 | 0.046784
   Type Conversion FU's:               7 | 0.006775

   ========= Static FU's ==========================
   Counter FU's:                    0
   Integer Add/Sub FU's:            0
   Integer Mul/Div FU's:            0
   Integer Shifter FU's:            0
   Integer Bitwise FU's:            0
   Floating Point Float Add/Sub:    0
   Floating Point Double Add/Sub:   0
   Floating Point Float Mul/Div:    0
   Floating Point Double Mul/Div:   0
   0 Cycle Compare FU's:            0
   GEP Instruction FU's:            0
   Type Conversion FU's:            0
   Other:                           0

   ========= Pipeline Register Usage =============
   Total Number of Registers:       5641
   Max Register Usage Per Cycle:    137
   Avg Register Usage Per Cycle:    12.117690
   Avg Register Size (Bytes):       5.980606

   ========= Memory Configuration =================
   Cache Bus Ports:                 0
   Shared Cache Size:               0kB
   Local Bus Ports:                 0
   Private SPM Size:                256kB
   Private Read Ports:              0
   Private Write Ports:             0
   Private Read Bus Width:          64
   Private Write Bus Width:         64
       Memory Reads:                0
       Memory Writes:               0
   ========= Power Analysis ======================
   FU Leakage Power:                0.000611 mW 
   FU Dynamic Power:                0.036818 mW 
   FU Total Power:                  0.037429 mW 

   Registers Leakage Power:          0.005281 mW 
   Registers Dynamic Power:          0.015342 mW 
       Register Reads (Bits):        132616
       Register Writes (Bits):       133658
   Registers Total Power:            0.020624 mW

   SPM Leakage Power:               0.104100 mW
   SPM Read Dynamic Power:          1.997266 mW
   SPM Write Dynamic Power:         0.953321 mW
   SPM Total Power:                 3.054688 mW

   Cache Leakage Power:             0.000000 mW
   Cache Read Dynamic Power:        0.000000 mW
   Cache Write Dynamic Power:       0.000000 mW
   Cache Total Power:               0.000000 mW

   Accelerator Power:               0.058053 mW
   Accelerator Power (SPM):         3.112741 mW
   Accelerator Power (Cache):       0.058053 mW

   ========= Area Analysis =======================
   FU Area:                         50.369961 um^2 (0.000050 mm^2)
   Register Area:                   429.271088 um^2 (0.000429 mm^2)
   SPM Area:                        2177.365505 um^2 (0.002177 mm^2)
   Cache Area:                      0.000000 um^2 (0.000000 mm^2)

   Accelerator Area:                479.641052 um^2 (0.000480 mm^2)
   Accelerator Area (SPM):          2657.006557 um^2 (0.002657 mm^2)
   Accelerator Area (Cache):        479.641052 um^2 (0.000480 mm^2)

   ========= SPM Resizing  =======================
   SPM Optimized Leakage Power:     0.004248 mW
   SPM Opt Area:                    178.524902 um^2

1879696250: global: Timer #0 started at tick 1879696250
1879872500: global: Timer #2 started at tick 1879872500
1880119375: global: Timer #2 stopped at tick 1880119375. Duration: 246875
1893386625: system.acctest.elem_matrix0_dma: SRC:0x0000000024020020, DST:0x00000000820ddd40, LEN:65536
1893803125: global: Timer #0 stopped at tick 1893803125. Duration: 14106875
1893817500: global: Number of accelerators running = 2
1899706625: system.acctest.elem_matrix0_dma: Transfer completed in 6.32 us
1899780625: global: Timer #0 started at tick 1899780625
1899825000: global: Timer #1 started at tick 1899825000
1899981250: global: Timer #1 stopped at tick 1899981250. Duration: 156250
1900292500: global: DAG ID = 1
1900306250: global: Node ID = 3
1900325625: global: Node deadline difference = -206
1900338125: global: Predicted memory time / byte = 9.69696e-05 us/byte
1900350625: global: Predicted memory time = 19.065 us
1900363125: global: Predicted memory time / byte = 9.69696e-05 us/byte
1900375625: global: Predicted memory time = 19.065 us
1900388125: global: Predicted memory time / byte = 0.000170723 us/byte
1900400625: global: Predicted memory time = 22 us
1900413125: global: Predicted memory time / byte = 9.60388e-05 us/byte
1900425625: global: Predicted memory time = 6 us
1900534375: global: Timer #0 stopped at tick 1900534375. Duration: 753750
1900548750: global: Number of accelerators running = 1
********************************************************************************
system.acctest.convolution0.compute
   ========= Performance Analysis =============
   Setup Time:                      0.427599seconds
   Simulation Time:                 440.467281seconds
   System Clock:                    1.000000GHz
   Transistor Latency:              1ns
   Runtime:                         1545612 cycles
   Runtime:                         1545.612000 us
   Stalls:                          3 cycles
   Executed Nodes:                  1545608 cycles

********************************************************************************
   ========= Performance Analysis =================
   Setup Time:                      427599100.000000ns
   Simulation Time:                 440467280845.000000ns
   System Clock:                    1.000000GHz
   Transistor Latency:              0ns
   Runtime:                         1545612 cycles
   Runtime:                         0.000155 seconds
   Stalls:                          3 cycles
       Load Only:                   0 cycles
       Store Only:                  1 cycles
       Compute Only:                2 cycles
       Compute & Store:             0 cycles
       Load & Store:                0 cycles
       Load & Compute:              0 cycles
       Load & Compute & Store:      0 cycles
   Executed Nodes:                  1545608 cycles
       Load Only:                   0 cycles
       Store Only:                  1 cycles
       Compute Only:                1142524 cycles
       Compute & Store:             1126 cycles
       Load & Store:                0 cycles
       Load & Compute:              386700 cycles
       Load & Compute & Store:      15257 cycles

   ========= Runtime FU's ========= (Max | Avg) ===
   Counter FU's:                       3 | 0.112298
   Integer Add/Sub FU's:               4 | 0.211563
   Integer Mul/Div FU's:               1 | 0.052505
   Integer Shifter FU's:              10 | 0.005268
   Integer Bitwise FU's:               2 | 0.184265
   Floating Point Float Add/Sub:       5 | 0.195737
   Floating Point Double Add/Sub:      0 | 0.000000
   Floating Point Float Mul/Div:       4 | 0.065017
   Floating Point Double Mul/Div:      0 | 0.000000
   0 Cycle Compare FU's:              40 | 0.144068
   GEP Instruction FU's:               2 | 0.265363
   Type Conversion FU's:              11 | 0.138856

   ========= Static FU's ==========================
   Counter FU's:                    0
   Integer Add/Sub FU's:            0
   Integer Mul/Div FU's:            0
   Integer Shifter FU's:            0
   Integer Bitwise FU's:            0
   Floating Point Float Add/Sub:    0
   Floating Point Double Add/Sub:   0
   Floating Point Float Mul/Div:    0
   Floating Point Double Mul/Div:   0
   0 Cycle Compare FU's:            0
   GEP Instruction FU's:            0
   Type Conversion FU's:            0
   Other:                           0

   ========= Pipeline Register Usage =============
   Total Number of Registers:       1702
   Max Register Usage Per Cycle:    20
   Avg Register Usage Per Cycle:    6.401172
   Avg Register Size (Bytes):       5.569403

   ========= Memory Configuration =================
   Cache Bus Ports:                 0
   Shared Cache Size:               0kB
   Local Bus Ports:                 0
   Private SPM Size:                192kB
   Private Read Ports:              0
   Private Write Ports:             0
   Private Read Bus Width:          64
   Private Write Bus Width:         64
       Memory Reads:                0
       Memory Writes:               0
   ========= Power Analysis ======================
   FU Leakage Power:                0.196912 mW 
   FU Dynamic Power:                2658.047119 mW 
   FU Total Power:                  2658.244141 mW 

   Registers Leakage Power:          0.002459 mW 
   Registers Dynamic Power:          75.875725 mW 
       Register Reads (Bits):        9893728
       Register Writes (Bits):       10131647
   Registers Total Power:            75.878181 mW

   SPM Leakage Power:               0.078311 mW
   SPM Read Dynamic Power:          16.237008 mW
   SPM Write Dynamic Power:         2.044305 mW
   SPM Total Power:                 18.359623 mW

   Cache Leakage Power:             0.000000 mW
   Cache Read Dynamic Power:        0.000000 mW
   Cache Write Dynamic Power:       0.000000 mW
   Cache Total Power:               0.000000 mW

   Accelerator Power:               2734.122314 mW
   Accelerator Power (SPM):         2752.481938 mW
   Accelerator Power (Cache):       2734.122314 mW

   ========= Area Analysis =======================
   FU Area:                         22931.867188 um^2 (0.022932 mm^2)
   Register Area:                   199.878082 um^2 (0.000200 mm^2)
   SPM Area:                        1748.188735 um^2 (0.001748 mm^2)
   Cache Area:                      0.000000 um^2 (0.000000 mm^2)

   Accelerator Area:                23131.746094 um^2 (0.023132 mm^2)
   Accelerator Area (SPM):          24879.934829 um^2 (0.024880 mm^2)
   Accelerator Area (Cache):        23131.746094 um^2 (0.023132 mm^2)

   ========= SPM Resizing  =======================
   SPM Optimized Leakage Power:     0.002053 mW
   SPM Opt Area:                    145.024971 um^2

3391743750: global: Timer #0 started at tick 3391743750
3391916875: global: Timer #2 started at tick 3391916875
3392194375: global: Timer #2 stopped at tick 3392194375. Duration: 277500
3392229375: global: Timer #2 started at tick 3392229375
3392521875: global: Timer #2 stopped at tick 3392521875. Duration: 292500
3405843750: system.acctest.convolution0_dma: SRC:0x0000000022020020, DST:0x0000000082038ec0, LEN:65536
3406225625: global: Timer #0 stopped at tick 3406225625. Duration: 14481875
3406240000: global: Number of accelerators running = 1
3412132750: system.acctest.convolution0_dma: Transfer completed in 6.289 us
3412218125: global: Timer #0 started at tick 3412218125
3412265625: global: Timer #1 started at tick 3412265625
3412421875: global: Timer #1 stopped at tick 3412421875. Duration: 156250
3412733750: global: DAG ID = 0
3412747500: global: Node ID = 2
3412766875: global: Node deadline difference = -11906
3412779375: global: Predicted memory time / byte = 0.000207988 us/byte
3412791875: global: Predicted memory time = 27.2822 us
3412804375: global: Predicted memory time / byte = 9.69696e-05 us/byte
3412816875: global: Predicted memory time = 12.7197 us
3412829375: global: Predicted memory time / byte = 0.000228745 us/byte
3412841875: global: Predicted memory time = 14 us
3412854375: global: Predicted memory time / byte = 9.58099e-05 us/byte
3412866875: global: Predicted memory time = 6 us
3426285875: system.acctest.convolution0_dma: SRC:0x00000000820ddd40, DST:0x0000000022000020, LEN:65536
3426539375: global: Timer #0 stopped at tick 3426539375. Duration: 14321250
3426553750: global: Number of accelerators running = 1
3438234875: system.acctest.convolution0_dma: Transfer completed in 11.949 us
3438362500: global: Timer #0 started at tick 3438362500
3438534375: global: Timer #1 started at tick 3438534375
3438758125: global: Timer #1 stopped at tick 3438758125. Duration: 223750
3439976625: system.acctest.convolution0_dma: SRC:0x00000000820cdc80, DST:0x0000000022030020, LEN:100
3440072625: system.acctest.convolution0_dma: Transfer completed in 0.096 us
3440211875: global: Timer #0 stopped at tick 3440211875. Duration: 1849375
3440226250: global: Number of accelerators running = 1
3440337500: global: Timer #0 started at tick 3440337500
3441718750: global: Timer #0 stopped at tick 3441718750. Duration: 1381250
3441733125: global: Number of accelerators running = 1
********************************************************************************
system.acctest.convolution0.compute
   ========= Performance Analysis =============
   Setup Time:                      0.421861seconds
   Simulation Time:                 232.636416seconds
   System Clock:                    1.000000GHz
   Transistor Latency:              1ns
   Runtime:                         1545605 cycles
   Runtime:                         1545.605000 us
   Stalls:                          0 cycles
   Executed Nodes:                  1545604 cycles

********************************************************************************
   ========= Performance Analysis =================
   Setup Time:                      421860909.000000ns
   Simulation Time:                 232636416430.000000ns
   System Clock:                    1.000000GHz
   Transistor Latency:              0ns
   Runtime:                         1545605 cycles
   Runtime:                         0.000155 seconds
   Stalls:                          0 cycles
       Load Only:                   0 cycles
       Store Only:                  0 cycles
       Compute Only:                0 cycles
       Compute & Store:             0 cycles
       Load & Store:                0 cycles
       Load & Compute:              0 cycles
       Load & Compute & Store:      0 cycles
   Executed Nodes:                  1545604 cycles
       Load Only:                   0 cycles
       Store Only:                  0 cycles
       Compute Only:                1127274 cycles
       Compute & Store:             16374 cycles
       Load & Store:                0 cycles
       Load & Compute:              401946 cycles
       Load & Compute & Store:      10 cycles

   ========= Runtime FU's ========= (Max | Avg) ===
   Counter FU's:                       3 | 0.112298
   Integer Add/Sub FU's:               4 | 0.211564
   Integer Mul/Div FU's:               1 | 0.052505
   Integer Shifter FU's:              10 | 0.005268
   Integer Bitwise FU's:               2 | 0.184266
   Floating Point Float Add/Sub:       5 | 0.207991
   Floating Point Double Add/Sub:      0 | 0.000000
   Floating Point Float Mul/Div:       2 | 0.130117
   Floating Point Double Mul/Div:      0 | 0.000000
   0 Cycle Compare FU's:              40 | 0.145956
   GEP Instruction FU's:               4 | 0.132683
   Type Conversion FU's:               7 | 0.186618

   ========= Static FU's ==========================
   Counter FU's:                    0
   Integer Add/Sub FU's:            0
   Integer Mul/Div FU's:            0
   Integer Shifter FU's:            0
   Integer Bitwise FU's:            0
   Floating Point Float Add/Sub:    0
   Floating Point Double Add/Sub:   0
   Floating Point Float Mul/Div:    0
   Floating Point Double Mul/Div:   0
   0 Cycle Compare FU's:            0
   GEP Instruction FU's:            0
   Type Conversion FU's:            0
   Other:                           0

   ========= Pipeline Register Usage =============
   Total Number of Registers:       1702
   Max Register Usage Per Cycle:    20
   Avg Register Usage Per Cycle:    6.348199
   Avg Register Size (Bytes):       5.569148

   ========= Memory Configuration =================
   Cache Bus Ports:                 0
   Shared Cache Size:               0kB
   Local Bus Ports:                 0
   Private SPM Size:                192kB
   Private Read Ports:              0
   Private Write Ports:             0
   Private Read Bus Width:          64
   Private Write Bus Width:         64
       Memory Reads:                0
       Memory Writes:               0
   ========= Power Analysis ======================
   FU Leakage Power:                0.196912 mW 
   FU Dynamic Power:                2743.028564 mW 
   FU Total Power:                  2743.225586 mW 

   Registers Leakage Power:          0.002459 mW 
   Registers Dynamic Power:          75.251152 mW 
       Register Reads (Bits):        9811808
       Register Writes (Bits):       10049727
   Registers Total Power:            75.253609 mW

   SPM Leakage Power:               0.078311 mW
   SPM Read Dynamic Power:          19.450047 mW
   SPM Write Dynamic Power:         2.457440 mW
   SPM Total Power:                 21.985798 mW

   Cache Leakage Power:             0.000000 mW
   Cache Read Dynamic Power:        0.000000 mW
   Cache Write Dynamic Power:       0.000000 mW
   Cache Total Power:               0.000000 mW

   Accelerator Power:               2818.479248 mW
   Accelerator Power (SPM):         2840.465046 mW
   Accelerator Power (Cache):       2818.479248 mW

   ========= Area Analysis =======================
   FU Area:                         22931.867188 um^2 (0.022932 mm^2)
   Register Area:                   199.868912 um^2 (0.000200 mm^2)
   SPM Area:                        1748.188735 um^2 (0.001748 mm^2)
   Cache Area:                      0.000000 um^2 (0.000000 mm^2)

   Accelerator Area:                23131.736328 um^2 (0.023132 mm^2)
   Accelerator Area (SPM):          24879.925063 um^2 (0.024880 mm^2)
   Accelerator Area (Cache):        23131.736328 um^2 (0.023132 mm^2)

   ========= SPM Resizing  =======================
   SPM Optimized Leakage Power:     0.002053 mW
   SPM Opt Area:                    145.024971 um^2

4987187500: global: Timer #0 started at tick 4987187500
4987358125: global: Timer #2 started at tick 4987358125
4987553125: global: Timer #2 stopped at tick 4987553125. Duration: 195000
4987801875: global: DAG ID = 1
4987815625: global: Node ID = 4
4987835625: global: Node deadline difference = 1304
4987848125: global: Predicted memory time / byte = 0.00015773 us/byte
4987860625: global: Predicted memory time = 20.6898 us
4987873125: global: Predicted memory time / byte = 9.58099e-05 us/byte
4987885625: global: Predicted memory time = 12.5676 us
4987898125: global: Predicted memory time / byte = 0.000184357 us/byte
4987910625: global: Predicted memory time = 12 us
4987923125: global: Predicted memory time / byte = 0 us/byte
4987935625: global: Predicted memory time = 0 us
5001300875: system.acctest.convolution0_dma: SRC:0x0000000082140400, DST:0x0000000022000020, LEN:65536
5014919875: system.acctest.convolution0_dma: Transfer completed in 13.619 us
5015019500: system.acctest.elem_matrix0_dma: SRC:0x00000000820fdd40, DST:0x0000000024000020, LEN:65536
5015242500: global: Timer #0 stopped at tick 5015242500. Duration: 28055000
5015256875: global: Number of accelerators running = 2
5015363125: global: Timer #0 started at tick 5015363125
5015402500: global: Timer #1 started at tick 5015402500
5015672500: global: Timer #1 stopped at tick 5015672500. Duration: 270000
5016874500: system.acctest.convolution0_dma: SRC:0x0000000082150700, DST:0x0000000022030020, LEN:36
5016908500: system.acctest.convolution0_dma: Transfer completed in 0.034 us
5017108125: global: Timer #0 stopped at tick 5017108125. Duration: 1745000
5017122500: global: Number of accelerators running = 2
5017234375: global: Timer #0 started at tick 5017234375
5018632500: global: Timer #0 stopped at tick 5018632500. Duration: 1398125
5018646875: global: Number of accelerators running = 2
5026930500: system.acctest.elem_matrix0_dma: Transfer completed in 11.911 us
5027015000: global: Timer #0 started at tick 5027015000
5027057500: global: Timer #1 started at tick 5027057500
5027199375: global: Timer #1 stopped at tick 5027199375. Duration: 141875
5028365875: system.acctest.elem_matrix0_dma: SRC:0x0000000022010020, DST:0x0000000024010020, LEN:65536
5028603750: global: Timer #0 stopped at tick 5028603750. Duration: 1588750
5028618125: global: Number of accelerators running = 2
5038626875: system.acctest.elem_matrix0_dma: Transfer completed in 10.261 us
5038700625: global: Timer #0 started at tick 5038700625
5038796250: global: Timer #1 started at tick 5038796250
5038938125: global: Timer #1 stopped at tick 5038938125. Duration: 141875
5040577500: global: Timer #0 stopped at tick 5040577500. Duration: 1876875
5040591875: global: Number of accelerators running = 2
********************************************************************************
system.acctest.elem_matrix0.compute
   ========= Performance Analysis =============
   Setup Time:                      4.670562seconds
   Simulation Time:                 167.714944seconds
   System Clock:                    1.000000GHz
   Transistor Latency:              1ns
   Runtime:                         10932 cycles
   Runtime:                         10.932000 us
   Stalls:                          1 cycles
   Executed Nodes:                  10930 cycles

********************************************************************************
   ========= Performance Analysis =================
   Setup Time:                      4670561895.000000ns
   Simulation Time:                 167714943751.000000ns
   System Clock:                    1.000000GHz
   Transistor Latency:              0ns
   Runtime:                         10932 cycles
   Runtime:                         0.000001 seconds
   Stalls:                          1 cycles
       Load Only:                   0 cycles
       Store Only:                  1 cycles
       Compute Only:                0 cycles
       Compute & Store:             0 cycles
       Load & Store:                0 cycles
       Load & Compute:              0 cycles
       Load & Compute & Store:      0 cycles
   Executed Nodes:                  10930 cycles
       Load Only:                   0 cycles
       Store Only:                  4 cycles
       Compute Only:                1 cycles
       Compute & Store:             21 cycles
       Load & Store:                0 cycles
       Load & Compute:              6 cycles
       Load & Compute & Store:      10898 cycles

   ========= Runtime FU's ========= (Max | Avg) ===
   Counter FU's:                      32 | 0.046838
   Integer Add/Sub FU's:               0 | 0.000000
   Integer Mul/Div FU's:               0 | 0.000000
   Integer Shifter FU's:               0 | 0.000000
   Integer Bitwise FU's:               1 | 0.000091
   Floating Point Float Add/Sub:       0 | 0.000000
   Floating Point Double Add/Sub:      0 | 0.000000
   Floating Point Float Mul/Div:      34 | 0.044252
   Floating Point Double Mul/Div:      0 | 0.000000
   0 Cycle Compare FU's:             102 | 0.046945
   GEP Instruction FU's:              96 | 0.046835
   Type Conversion FU's:               7 | 0.006782

   ========= Static FU's ==========================
   Counter FU's:                    0
   Integer Add/Sub FU's:            0
   Integer Mul/Div FU's:            0
   Integer Shifter FU's:            0
   Integer Bitwise FU's:            0
   Floating Point Float Add/Sub:    0
   Floating Point Double Add/Sub:   0
   Floating Point Float Mul/Div:    0
   Floating Point Double Mul/Div:   0
   0 Cycle Compare FU's:            0
   GEP Instruction FU's:            0
   Type Conversion FU's:            0
   Other:                           0

   ========= Pipeline Register Usage =============
   Total Number of Registers:       5641
   Max Register Usage Per Cycle:    137
   Avg Register Usage Per Cycle:    12.130992
   Avg Register Size (Bytes):       5.980606

   ========= Memory Configuration =================
   Cache Bus Ports:                 0
   Shared Cache Size:               0kB
   Local Bus Ports:                 0
   Private SPM Size:                256kB
   Private Read Ports:              0
   Private Write Ports:             0
   Private Read Bus Width:          64
   Private Write Bus Width:         64
       Memory Reads:                0
       Memory Writes:               0
   ========= Power Analysis ======================
   FU Leakage Power:                0.045377 mW 
   FU Dynamic Power:                0.142576 mW 
   FU Total Power:                  0.187953 mW 

   Registers Leakage Power:          0.005281 mW 
   Registers Dynamic Power:          0.015326 mW 
       Register Reads (Bits):        132616
       Register Writes (Bits):       133658
   Registers Total Power:            0.020607 mW

   SPM Leakage Power:               0.104100 mW
   SPM Read Dynamic Power:          2.785289 mW
   SPM Write Dynamic Power:         2.044305 mW
   SPM Total Power:                 4.933694 mW

   Cache Leakage Power:             0.000000 mW
   Cache Read Dynamic Power:        0.000000 mW
   Cache Write Dynamic Power:       0.000000 mW
   Cache Total Power:               0.000000 mW

   Accelerator Power:               0.208559 mW
   Accelerator Power (SPM):         5.142254 mW
   Accelerator Power (Cache):       0.208559 mW

   ========= Area Analysis =======================
   FU Area:                         5472.068359 um^2 (0.005472 mm^2)
   Register Area:                   429.271088 um^2 (0.000429 mm^2)
   SPM Area:                        2177.365505 um^2 (0.002177 mm^2)
   Cache Area:                      0.000000 um^2 (0.000000 mm^2)

   Accelerator Area:                5901.339355 um^2 (0.005901 mm^2)
   Accelerator Area (SPM):          8078.704860 um^2 (0.008079 mm^2)
[...]
   Executed Nodes:                  10942 cycles
       Load Only:                   0 cycles
       Store Only:                  16 cycles
       Compute Only:                1 cycles
       Compute & Store:             21 cycles
       Load & Store:                0 cycles
       Load & Compute:              18 cycles
       Load & Compute & Store:      10886 cycles

   ========= Runtime FU's ========= (Max | Avg) ===
   Counter FU's:                      32 | 0.046786
   Integer Add/Sub FU's:               0 | 0.000000
   Integer Mul/Div FU's:               0 | 0.000000
   Integer Shifter FU's:               0 | 0.000000
   Integer Bitwise FU's:               1 | 0.000091
   Floating Point Float Add/Sub:       0 | 0.000000
   Floating Point Double Add/Sub:      0 | 0.000000
   Floating Point Float Mul/Div:       0 | 0.000000
   Floating Point Double Mul/Div:      0 | 0.000000
   0 Cycle Compare FU's:             102 | 0.047066
   GEP Instruction FU's:              96 | 0.046784
   Type Conversion FU's:               7 | 0.006775

   ========= Static FU's ==========================
   Counter FU's:                    0
   Integer Add/Sub FU's:            0
   Integer Mul/Div FU's:            0
   Integer Shifter FU's:            0
   Integer Bitwise FU's:            0
   Floating Point Float Add/Sub:    0
   Floating Point Double Add/Sub:   0
   Floating Point Float Mul/Div:    0
   Floating Point Double Mul/Div:   0
   0 Cycle Compare FU's:            0
   GEP Instruction FU's:            0
   Type Conversion FU's:            0
   Other:                           0

   ========= Pipeline Register Usage =============
   Total Number of Registers:       5641
   Max Register Usage Per Cycle:    137
   Avg Register Usage Per Cycle:    12.117690
   Avg Register Size (Bytes):       5.980606

   ========= Memory Configuration =================
   Cache Bus Ports:                 0
   Shared Cache Size:               0kB
   Local Bus Ports:                 0
   Private SPM Size:                256kB
   Private Read Ports:              0
   Private Write Ports:             0
   Private Read Bus Width:          64
   Private Write Bus Width:         64
       Memory Reads:                0
       Memory Writes:               0
   ========= Power Analysis ======================
   FU Leakage Power:                0.000611 mW 
   FU Dynamic Power:                0.036818 mW 
   FU Total Power:                  0.037429 mW 

   Registers Leakage Power:          0.005281 mW 
   Registers Dynamic Power:          0.015342 mW 
       Register Reads (Bits):        132616
       Register Writes (Bits):       133658
   Registers Total Power:            0.020624 mW

   SPM Leakage Power:               0.104100 mW
   SPM Read Dynamic Power:          10.231831 mW
   SPM Write Dynamic Power:         9.065758 mW
   SPM Total Power:                 19.401689 mW

   Cache Leakage Power:             0.000000 mW
   Cache Read Dynamic Power:        0.000000 mW
   Cache Write Dynamic Power:       0.000000 mW
   Cache Total Power:               0.000000 mW

   Accelerator Power:               0.058053 mW
   Accelerator Power (SPM):         19.459742 mW
   Accelerator Power (Cache):       0.058053 mW

   ========= Area Analysis =======================
   FU Area:                         50.369961 um^2 (0.000050 mm^2)
   Register Area:                   429.271088 um^2 (0.000429 mm^2)
   SPM Area:                        2177.365505 um^2 (0.002177 mm^2)
   Cache Area:                      0.000000 um^2 (0.000000 mm^2)

   Accelerator Area:                479.641052 um^2 (0.000480 mm^2)
   Accelerator Area (SPM):          2657.006557 um^2 (0.002657 mm^2)
   Accelerator Area (Cache):        479.641052 um^2 (0.000480 mm^2)

   ========= SPM Resizing  =======================
   SPM Optimized Leakage Power:     0.004248 mW
   SPM Opt Area:                    178.524902 um^2

23668582500: global: Timer #0 started at tick 23668582500
23668753125: global: Timer #2 started at tick 23668753125
23668930000: global: Timer #2 stopped at tick 23668930000. Duration: 176875
23669155000: global: DAG ID = 1
23669168750: global: Node ID = 19
23669181875: global: Node deadline difference = 8495
23669194375: global: Predicted memory time / byte = 9.85718e-05 us/byte
23669206875: global: Predicted memory time = 19.38 us
23669219375: global: Predicted memory time / byte = 9.85718e-05 us/byte
23669231875: global: Predicted memory time = 19.38 us
23669244375: global: Predicted memory time / byte = 0.000170013 us/byte
23669256875: global: Predicted memory time = 22 us
23669269375: global: Predicted memory time / byte = 0 us/byte
23669281875: global: Predicted memory time = 0 us
23670248750: system.acctest.convolution0_dma: SRC:0x0000000024020020, DST:0x0000000022000020, LEN:65536
23670522500: global: Timer #0 stopped at tick 23670522500. Duration: 1940000
23670536875: global: Number of accelerators running = 1
23680509750: system.acctest.convolution0_dma: Transfer completed in 10.261 us
23680601250: global: Timer #0 started at tick 23680601250
23680731875: global: Timer #1 started at tick 23680731875
23680957500: global: Timer #1 stopped at tick 23680957500. Duration: 225625
23682135875: system.acctest.convolution0_dma: SRC:0x00000000820cdc80, DST:0x0000000022030020, LEN:100
23682232875: system.acctest.convolution0_dma: Transfer completed in 0.097 us
23682361875: global: Timer #0 stopped at tick 23682361875. Duration: 1760625
23682376250: global: Number of accelerators running = 1
23682498750: global: Timer #0 started at tick 23682498750
23683883750: global: Timer #0 stopped at tick 23683883750. Duration: 1385000
23683898125: global: Number of accelerators running = 1
********************************************************************************
system.acctest.convolution0.compute
   ========= Performance Analysis =============
   Setup Time:                      0.848189seconds
   Simulation Time:                 276.288955seconds
   System Clock:                    1.000000GHz
   Transistor Latency:              1ns
   Runtime:                         1545605 cycles
   Runtime:                         1545.605000 us
   Stalls:                          0 cycles
   Executed Nodes:                  1545604 cycles

********************************************************************************
   ========= Performance Analysis =================
   Setup Time:                      848188791.000000ns
   Simulation Time:                 276288955027.000000ns
   System Clock:                    1.000000GHz
   Transistor Latency:              0ns
   Runtime:                         1545605 cycles
   Runtime:                         0.000155 seconds
   Stalls:                          0 cycles
       Load Only:                   0 cycles
       Store Only:                  0 cycles
       Compute Only:                0 cycles
       Compute & Store:             0 cycles
       Load & Store:                0 cycles
       Load & Compute:              0 cycles
       Load & Compute & Store:      0 cycles
   Executed Nodes:                  1545604 cycles
       Load Only:                   0 cycles
       Store Only:                  0 cycles
       Compute Only:                1127274 cycles
       Compute & Store:             16374 cycles
       Load & Store:                0 cycles
       Load & Compute:              401946 cycles
       Load & Compute & Store:      10 cycles

   ========= Runtime FU's ========= (Max | Avg) ===
   Counter FU's:                       3 | 0.112298
   Integer Add/Sub FU's:               4 | 0.211564
   Integer Mul/Div FU's:               1 | 0.052505
   Integer Shifter FU's:              10 | 0.005268
   Integer Bitwise FU's:               2 | 0.184266
   Floating Point Float Add/Sub:       5 | 0.207991
   Floating Point Double Add/Sub:      0 | 0.000000
   Floating Point Float Mul/Div:       2 | 0.130117
   Floating Point Double Mul/Div:      0 | 0.000000
   0 Cycle Compare FU's:              40 | 0.145956
   GEP Instruction FU's:               4 | 0.132683
   Type Conversion FU's:               7 | 0.186618

   ========= Static FU's ==========================
   Counter FU's:                    0
   Integer Add/Sub FU's:            0
   Integer Mul/Div FU's:            0
   Integer Shifter FU's:            0
   Integer Bitwise FU's:            0
   Floating Point Float Add/Sub:    0
   Floating Point Double Add/Sub:   0
   Floating Point Float Mul/Div:    0
   Floating Point Double Mul/Div:   0
   0 Cycle Compare FU's:            0
   GEP Instruction FU's:            0
   Type Conversion FU's:            0
   Other:                           0

   ========= Pipeline Register Usage =============
   Total Number of Registers:       1702
   Max Register Usage Per Cycle:    20
   Avg Register Usage Per Cycle:    6.348199
   Avg Register Size (Bytes):       5.569148

   ========= Memory Configuration =================
   Cache Bus Ports:                 0
   Shared Cache Size:               0kB
   Local Bus Ports:                 0
   Private SPM Size:                192kB
   Private Read Ports:              0
   Private Write Ports:             0
   Private Read Bus Width:          64
   Private Write Bus Width:         64
       Memory Reads:                0
       Memory Writes:               0
   ========= Power Analysis ======================
   FU Leakage Power:                0.196912 mW 
   FU Dynamic Power:                2743.028564 mW 
   FU Total Power:                  2743.225586 mW 

   Registers Leakage Power:          0.002459 mW 
   Registers Dynamic Power:          75.251152 mW 
       Register Reads (Bits):        9811808
       Register Writes (Bits):       10049727
   Registers Total Power:            75.253609 mW

   SPM Leakage Power:               0.078311 mW
   SPM Read Dynamic Power:          42.378247 mW
   SPM Write Dynamic Power:         7.740710 mW
   SPM Total Power:                 50.197268 mW

   Cache Leakage Power:             0.000000 mW
   Cache Read Dynamic Power:        0.000000 mW
   Cache Write Dynamic Power:       0.000000 mW
   Cache Total Power:               0.000000 mW

   Accelerator Power:               2818.479248 mW
   Accelerator Power (SPM):         2868.676516 mW
   Accelerator Power (Cache):       2818.479248 mW

   ========= Area Analysis =======================
   FU Area:                         22931.867188 um^2 (0.022932 mm^2)
   Register Area:                   199.868912 um^2 (0.000200 mm^2)
   SPM Area:                        1748.188735 um^2 (0.001748 mm^2)
   Cache Area:                      0.000000 um^2 (0.000000 mm^2)

   Accelerator Area:                23131.736328 um^2 (0.023132 mm^2)
   Accelerator Area (SPM):          24879.925063 um^2 (0.024880 mm^2)
   Accelerator Area (Cache):        23131.736328 um^2 (0.023132 mm^2)

   ========= SPM Resizing  =======================
   SPM Optimized Leakage Power:     0.002053 mW
   SPM Opt Area:                    145.024971 um^2

25229348125: global: Timer #0 started at tick 25229348125
25229511250: global: Timer #2 started at tick 25229511250
25229699375: global: Timer #2 stopped at tick 25229699375. Duration: 188125
25229925000: global: DAG ID = 1
25229938750: global: Node ID = 20
25229951875: global: Node deadline difference = 8478
25229964375: global: Predicted memory time / byte = 0.000156876 us/byte
25229976875: global: Predicted memory time = 20.5777 us
25229989375: global: Predicted memory time / byte = 0.000156876 us/byte
25230001875: global: Predicted memory time = 20.5777 us
25230014375: global: Predicted memory time / byte = 0.000157974 us/byte
25230026875: global: Predicted memory time = 10 us
25230039375: global: Predicted memory time / byte = 0 us/byte
25230051875: global: Predicted memory time = 0 us
25243618750: system.acctest.elem_matrix0_dma: SRC:0x00000000820fdd40, DST:0x0000000024000020, LEN:65536
25243817500: global: Timer #0 stopped at tick 25243817500. Duration: 14469375
25243831250: global: Number of accelerators running = 1
25255621750: system.acctest.elem_matrix0_dma: Transfer completed in 12.003 us
25255706875: global: Timer #0 started at tick 25255706875
25255760625: global: Timer #1 started at tick 25255760625
25256031875: global: Timer #1 stopped at tick 25256031875. Duration: 271250
25257235875: system.acctest.elem_matrix0_dma: SRC:0x0000000022010020, DST:0x0000000024010020, LEN:65536
25257460625: global: Timer #0 stopped at tick 25257460625. Duration: 1753750
25257475000: global: Number of accelerators running = 1
25267496875: system.acctest.elem_matrix0_dma: Transfer completed in 10.261 us
25267571250: global: Timer #0 started at tick 25267571250
25267656250: global: Timer #1 started at tick 25267656250
25267798125: global: Timer #1 stopped at tick 25267798125. Duration: 141875
25269428125: global: Timer #0 stopped at tick 25269428125. Duration: 1856875
25269442500: global: Number of accelerators running = 1
********************************************************************************
system.acctest.elem_matrix0.compute
   ========= Performance Analysis =============
   Setup Time:                      4.573204seconds
   Simulation Time:                 140.266830seconds
   System Clock:                    1.000000GHz
   Transistor Latency:              1ns
   Runtime:                         10932 cycles
   Runtime:                         10.932000 us
   Stalls:                          1 cycles
   Executed Nodes:                  10930 cycles

********************************************************************************
   ========= Performance Analysis =================
   Setup Time:                      4573203555.000000ns
   Simulation Time:                 140266829766.000000ns
   System Clock:                    1.000000GHz
   Transistor Latency:              0ns
   Runtime:                         10932 cycles
   Runtime:                         0.000001 seconds
   Stalls:                          1 cycles
       Load Only:                   0 cycles
       Store Only:                  1 cycles
       Compute Only:                0 cycles
       Compute & Store:             0 cycles
       Load & Store:                0 cycles
       Load & Compute:              0 cycles
       Load & Compute & Store:      0 cycles
   Executed Nodes:                  10930 cycles
       Load Only:                   0 cycles
       Store Only:                  4 cycles
       Compute Only:                1 cycles
       Compute & Store:             21 cycles
       Load & Store:                0 cycles
       Load & Compute:              6 cycles
       Load & Compute & Store:      10898 cycles

   ========= Runtime FU's ========= (Max | Avg) ===
   Counter FU's:                      32 | 0.046838
   Integer Add/Sub FU's:               0 | 0.000000
   Integer Mul/Div FU's:               0 | 0.000000
   Integer Shifter FU's:               0 | 0.000000
   Integer Bitwise FU's:               1 | 0.000091
   Floating Point Float Add/Sub:       0 | 0.000000
   Floating Point Double Add/Sub:      0 | 0.000000
   Floating Point Float Mul/Div:      34 | 0.044252
   Floating Point Double Mul/Div:      0 | 0.000000
   0 Cycle Compare FU's:             102 | 0.046945
   GEP Instruction FU's:              96 | 0.046835
   Type Conversion FU's:               7 | 0.006782

   ========= Static FU's ==========================
   Counter FU's:                    0
   Integer Add/Sub FU's:            0
   Integer Mul/Div FU's:            0
   Integer Shifter FU's:            0
   Integer Bitwise FU's:            0
   Floating Point Float Add/Sub:    0
   Floating Point Double Add/Sub:   0
   Floating Point Float Mul/Div:    0
   Floating Point Double Mul/Div:   0
   0 Cycle Compare FU's:            0
   GEP Instruction FU's:            0
   Type Conversion FU's:            0
   Other:                           0

   ========= Pipeline Register Usage =============
   Total Number of Registers:       5641
   Max Register Usage Per Cycle:    137
   Avg Register Usage Per Cycle:    12.130992
   Avg Register Size (Bytes):       5.980606

   ========= Memory Configuration =================
   Cache Bus Ports:                 0
   Shared Cache Size:               0kB
   Local Bus Ports:                 0
   Private SPM Size:                256kB
   Private Read Ports:              0
   Private Write Ports:             0
   Private Read Bus Width:          64
   Private Write Bus Width:         64
       Memory Reads:                0
       Memory Writes:               0
   ========= Power Analysis ======================
   FU Leakage Power:                0.045377 mW 
   FU Dynamic Power:                0.142576 mW 
   FU Total Power:                  0.187953 mW 

   Registers Leakage Power:          0.005281 mW 
   Registers Dynamic Power:          0.015326 mW 
       Register Reads (Bits):        132616
       Register Writes (Bits):       133658
   Registers Total Power:            0.020607 mW

   SPM Leakage Power:               0.104100 mW
   SPM Read Dynamic Power:          10.437585 mW
   SPM Write Dynamic Power:         9.286945 mW
   SPM Total Power:                 19.828631 mW

   Cache Leakage Power:             0.000000 mW
   Cache Read Dynamic Power:        0.000000 mW
   Cache Write Dynamic Power:       0.000000 mW
   Cache Total Power:               0.000000 mW

   Accelerator Power:               0.208559 mW
   Accelerator Power (SPM):         20.037191 mW
   Accelerator Power (Cache):       0.208559 mW

   ========= Area Analysis =======================
   FU Area:                         5472.068359 um^2 (0.005472 mm^2)
   Register Area:                   429.271088 um^2 (0.000429 mm^2)
   SPM Area:                        2177.365505 um^2 (0.002177 mm^2)
   Cache Area:                      0.000000 um^2 (0.000000 mm^2)

   Accelerator Area:                5901.339355 um^2 (0.005901 mm^2)
   Accelerator Area (SPM):          8078.704860 um^2 (0.008079 mm^2)
   Accelerator Area (Cache):        5901.339355 um^2 (0.005901 mm^2)

   ========= SPM Resizing  =======================
   SPM Optimized Leakage Power:     0.004248 mW
   SPM Opt Area:                    178.524902 um^2

25280210625: global: Timer #0 started at tick 25280210625
25293523750: system.acctest.elem_matrix0_dma: SRC:0x0000000024020020, DST:0x00000000820fdd40, LEN:65536
25293866875: global: Timer #0 stopped at tick 25293866875. Duration: 13656250
25293881250: global: Number of accelerators running = 1
25299844750: system.acctest.elem_matrix0_dma: Transfer completed in 6.321 us
25299919375: global: Timer #0 started at tick 25299919375
25299968750: global: Timer #1 started at tick 25299968750
25300110625: global: Timer #1 stopped at tick 25300110625. Duration: 141875
25300422500: global: DAG ID = 1
25300436250: global: Node ID = 21
25300460625: global: DAG execution time = 25159
25300473750: global: DAG deadline difference = 8492
25300491875: global: Node deadline difference = 8492
25300504375: global: Predicted memory time / byte = 0.000157974 us/byte
25300516875: global: Predicted memory time = 31.059 us
25300529375: global: Predicted memory time / byte = 0.000157974 us/byte
25300541875: global: Predicted memory time = 31.059 us
25300554375: global: Predicted memory time / byte = 0.000170082 us/byte
25300566875: global: Predicted memory time = 22 us
25300579375: global: Predicted memory time / byte = 9.63135e-05 us/byte
25300591875: global: Predicted memory time = 6 us
25300687500: global: Timer #0 stopped at tick 25300687500. Duration: 768125
25300701875: global: Number of accelerators running = 0
25300778750: global: Number of forwards = 28
25300837500: global: Number of colocations = 5
25300856875: global: Number of DAG deadlines met = 0
25300876875: global: Number of node deadlines met = 20
25300911875: global: Total predicted compute time = 25306 us
Exiting @ tick 25301118125 because m5_exit instruction encountered
