
---------- Begin Simulation Statistics ----------
final_tick                                  963885000                       # Number of ticks from beginning of simulation (restored from checkpoints and never reset)
host_inst_rate                                  15883                       # Simulator instruction rate (inst/s)
host_mem_usage                                5269000                       # Number of bytes of host memory used
host_op_rate                                    16626                       # Simulator op (including micro ops) rate (op/s)
host_seconds                                    81.34                       # Real time elapsed on the host
host_tick_rate                                 885248                       # Simulator tick rate (ticks/s)
sim_freq                                 1000000000000                       # Frequency of simulated ticks
sim_insts                                     1291989                       # Number of instructions simulated
sim_ops                                       1352411                       # Number of ops (including micro ops) simulated
sim_seconds                                  0.000072                       # Number of seconds simulated
sim_ticks                                    72008750                       # Number of ticks simulated
system.acctest.coherency_bus.snoop_filter.hit_multi_requests            0                       # Number of requests hitting in the snoop filter with multiple (>1) holders of the requested data.
system.acctest.coherency_bus.snoop_filter.hit_multi_snoops            0                       # Number of snoops hitting in the snoop filter with multiple (>1) holders of the requested data.
system.acctest.coherency_bus.snoop_filter.hit_single_requests            0                       # Number of requests hitting in the snoop filter with a single holder of the requested data.
system.acctest.coherency_bus.snoop_filter.hit_single_snoops            0                       # Number of snoops hitting in the snoop filter with a single holder of the requested data.
system.acctest.coherency_bus.snoop_filter.tot_requests            0                       # Total number of requests made to the snoop filter.
system.acctest.coherency_bus.snoop_filter.tot_snoops            0                       # Total number of snoops made to the snoop filter.
system.cf0.dma_read_bytes                           0                       # Number of bytes transfered via DMA reads (not PRD).
system.cf0.dma_read_full_pages                      0                       # Number of full page size DMA reads (not PRD).
system.cf0.dma_read_txs                             0                       # Number of DMA read transactions (not PRD).
system.cf0.dma_write_bytes                          0                       # Number of bytes transfered via DMA writes.
system.cf0.dma_write_full_pages                     0                       # Number of full page size DMA writes.
system.cf0.dma_write_txs                            0                       # Number of DMA write transactions.
system.cpu.branchPred.BTBCorrect                    0                       # Number of correct BTB predictions (this stat may not work properly.
system.cpu.branchPred.BTBHitPct             97.612447                       # BTB Hit Percentage
system.cpu.branchPred.BTBHits                   10916                       # Number of BTB hits
system.cpu.branchPred.BTBLookups                11183                       # Number of BTB lookups
system.cpu.branchPred.RASInCorrect                  1                       # Number of incorrect RAS predictions.
system.cpu.branchPred.condIncorrect                99                       # Number of conditional branches incorrect
system.cpu.branchPred.condPredicted             11130                       # Number of conditional branches predicted
system.cpu.branchPred.indirectHits                  0                       # Number of indirect target hits.
system.cpu.branchPred.indirectLookups              13                       # Number of indirect predictor lookups.
system.cpu.branchPred.indirectMisses               13                       # Number of indirect misses.
system.cpu.branchPred.lookups                   11254                       # Number of BP lookups
system.cpu.branchPred.usedRAS                      24                       # Number of times the RAS was used to get a target.
system.cpu.branchPredindirectMispredicted            7                       # Number of mispredicted indirect branches.
system.cpu.committedInsts                       37938                       # Number of instructions committed
system.cpu.committedOps                         38087                       # Number of ops (including micro ops) committed
system.cpu.cpi                               3.036902                       # CPI: cycles per instruction
system.cpu.discardedOps                           321                       # Number of ops (including micro ops) which were discarded before commit
system.cpu.dtb.accesses                             0                       # DTB accesses
system.cpu.dtb.align_faults                         0                       # Number of TLB faults due to alignment restrictions
system.cpu.dtb.domain_faults                        0                       # Number of TLB faults due to domain restrictions
system.cpu.dtb.flush_entries                        0                       # Number of entries that have been flushed from TLB
system.cpu.dtb.flush_tlb                            0                       # Number of times complete TLB was flushed
system.cpu.dtb.flush_tlb_asid                       0                       # Number of times TLB was flushed by ASID
system.cpu.dtb.flush_tlb_mva                        0                       # Number of times TLB was flushed by MVA
system.cpu.dtb.flush_tlb_mva_asid                   0                       # Number of times TLB was flushed by MVA & ASID
system.cpu.dtb.hits                                 0                       # DTB hits
system.cpu.dtb.inst_accesses                        0                       # ITB inst accesses
system.cpu.dtb.inst_hits                            0                       # ITB inst hits
system.cpu.dtb.inst_misses                          0                       # ITB inst misses
system.cpu.dtb.misses                               0                       # DTB misses
system.cpu.dtb.perms_faults                         0                       # Number of TLB faults due to permissions restrictions
system.cpu.dtb.prefetch_faults                      0                       # Number of TLB faults due to prefetch
system.cpu.dtb.read_accesses                        0                       # DTB read accesses
system.cpu.dtb.read_hits                            0                       # DTB read hits
system.cpu.dtb.read_misses                          0                       # DTB read misses
system.cpu.dtb.stage2_mmu.stage2_tlb.accesses            0                       # DTB accesses
system.cpu.dtb.stage2_mmu.stage2_tlb.align_faults            0                       # Number of TLB faults due to alignment restrictions
system.cpu.dtb.stage2_mmu.stage2_tlb.domain_faults            0                       # Number of TLB faults due to domain restrictions
system.cpu.dtb.stage2_mmu.stage2_tlb.flush_entries            0                       # Number of entries that have been flushed from TLB
system.cpu.dtb.stage2_mmu.stage2_tlb.flush_tlb            0                       # Number of times complete TLB was flushed
system.cpu.dtb.stage2_mmu.stage2_tlb.flush_tlb_asid            0                       # Number of times TLB was flushed by ASID
system.cpu.dtb.stage2_mmu.stage2_tlb.flush_tlb_mva            0                       # Number of times TLB was flushed by MVA
system.cpu.dtb.stage2_mmu.stage2_tlb.flush_tlb_mva_asid            0                       # Number of times TLB was flushed by MVA & ASID
system.cpu.dtb.stage2_mmu.stage2_tlb.hits            0                       # DTB hits
system.cpu.dtb.stage2_mmu.stage2_tlb.inst_accesses            0                       # ITB inst accesses
system.cpu.dtb.stage2_mmu.stage2_tlb.inst_hits            0                       # ITB inst hits
system.cpu.dtb.stage2_mmu.stage2_tlb.inst_misses            0                       # ITB inst misses
system.cpu.dtb.stage2_mmu.stage2_tlb.misses            0                       # DTB misses
system.cpu.dtb.stage2_mmu.stage2_tlb.perms_faults            0                       # Number of TLB faults due to permissions restrictions
system.cpu.dtb.stage2_mmu.stage2_tlb.prefetch_faults            0                       # Number of TLB faults due to prefetch
system.cpu.dtb.stage2_mmu.stage2_tlb.read_accesses            0                       # DTB read accesses
system.cpu.dtb.stage2_mmu.stage2_tlb.read_hits            0                       # DTB read hits
system.cpu.dtb.stage2_mmu.stage2_tlb.read_misses            0                       # DTB read misses
system.cpu.dtb.stage2_mmu.stage2_tlb.walker.walkRequestOrigin_Requested::Data            0                       # Table walker requests started/completed, data/inst
system.cpu.dtb.stage2_mmu.stage2_tlb.walker.walkRequestOrigin_Requested::Inst            0                       # Table walker requests started/completed, data/inst
system.cpu.dtb.stage2_mmu.stage2_tlb.walker.walkRequestOrigin_Requested::total            0                       # Table walker requests started/completed, data/inst
system.cpu.dtb.stage2_mmu.stage2_tlb.walker.walkRequestOrigin_Completed::Data            0                       # Table walker requests started/completed, data/inst
system.cpu.dtb.stage2_mmu.stage2_tlb.walker.walkRequestOrigin_Completed::Inst            0                       # Table walker requests started/completed, data/inst
system.cpu.dtb.stage2_mmu.stage2_tlb.walker.walkRequestOrigin_Completed::total            0                       # Table walker requests started/completed, data/inst
system.cpu.dtb.stage2_mmu.stage2_tlb.walker.walkRequestOrigin::total            0                       # Table walker requests started/completed, data/inst
system.cpu.dtb.stage2_mmu.stage2_tlb.walker.walks            0                       # Table walker walks requested
system.cpu.dtb.stage2_mmu.stage2_tlb.write_accesses            0                       # DTB write accesses
system.cpu.dtb.stage2_mmu.stage2_tlb.write_hits            0                       # DTB write hits
system.cpu.dtb.stage2_mmu.stage2_tlb.write_misses            0                       # DTB write misses
system.cpu.dtb.walker.walkRequestOrigin_Requested::Data            0                       # Table walker requests started/completed, data/inst
system.cpu.dtb.walker.walkRequestOrigin_Requested::Inst            0                       # Table walker requests started/completed, data/inst
system.cpu.dtb.walker.walkRequestOrigin_Requested::total            0                       # Table walker requests started/completed, data/inst
system.cpu.dtb.walker.walkRequestOrigin_Completed::Data            0                       # Table walker requests started/completed, data/inst
system.cpu.dtb.walker.walkRequestOrigin_Completed::Inst            0                       # Table walker requests started/completed, data/inst
system.cpu.dtb.walker.walkRequestOrigin_Completed::total            0                       # Table walker requests started/completed, data/inst
system.cpu.dtb.walker.walkRequestOrigin::total            0                       # Table walker requests started/completed, data/inst
system.cpu.dtb.walker.walks                         0                       # Table walker walks requested
system.cpu.dtb.write_accesses                       0                       # DTB write accesses
system.cpu.dtb.write_hits                           0                       # DTB write hits
system.cpu.dtb.write_misses                         0                       # DTB write misses
system.cpu.fetch2.amo_instructions                  0                       # Number of memory atomic instructions successfully decoded
system.cpu.fetch2.fp_instructions                   0                       # Number of floating point instructions successfully decoded
system.cpu.fetch2.int_instructions              16423                       # Number of integer instructions successfully decoded
system.cpu.fetch2.load_instructions              8253                       # Number of memory load instructions successfully decoded
system.cpu.fetch2.store_instructions             3335                       # Number of memory store instructions successfully decoded
system.cpu.fetch2.vec_instructions                  0                       # Number of SIMD instructions successfully decoded
system.cpu.idleCycles                           16167                       # Total number of cycles that the object has spent stopped
system.cpu.ipc                               0.329283                       # IPC: instructions per cycle
system.cpu.itb.accesses                             0                       # DTB accesses
system.cpu.itb.align_faults                         0                       # Number of TLB faults due to alignment restrictions
system.cpu.itb.domain_faults                        0                       # Number of TLB faults due to domain restrictions
system.cpu.itb.flush_entries                        0                       # Number of entries that have been flushed from TLB
system.cpu.itb.flush_tlb                            0                       # Number of times complete TLB was flushed
system.cpu.itb.flush_tlb_asid                       0                       # Number of times TLB was flushed by ASID
system.cpu.itb.flush_tlb_mva                        0                       # Number of times TLB was flushed by MVA
system.cpu.itb.flush_tlb_mva_asid                   0                       # Number of times TLB was flushed by MVA & ASID
system.cpu.itb.hits                                 0                       # DTB hits
system.cpu.itb.inst_accesses                        0                       # ITB inst accesses
system.cpu.itb.inst_hits                            0                       # ITB inst hits
system.cpu.itb.inst_misses                          0                       # ITB inst misses
system.cpu.itb.misses                               0                       # DTB misses
system.cpu.itb.perms_faults                         0                       # Number of TLB faults due to permissions restrictions
system.cpu.itb.prefetch_faults                      0                       # Number of TLB faults due to prefetch
system.cpu.itb.read_accesses                        0                       # DTB read accesses
system.cpu.itb.read_hits                            0                       # DTB read hits
system.cpu.itb.read_misses                          0                       # DTB read misses
system.cpu.itb.stage2_mmu.stage2_tlb.accesses            0                       # DTB accesses
system.cpu.itb.stage2_mmu.stage2_tlb.align_faults            0                       # Number of TLB faults due to alignment restrictions
system.cpu.itb.stage2_mmu.stage2_tlb.domain_faults            0                       # Number of TLB faults due to domain restrictions
system.cpu.itb.stage2_mmu.stage2_tlb.flush_entries            0                       # Number of entries that have been flushed from TLB
system.cpu.itb.stage2_mmu.stage2_tlb.flush_tlb            0                       # Number of times complete TLB was flushed
system.cpu.itb.stage2_mmu.stage2_tlb.flush_tlb_asid            0                       # Number of times TLB was flushed by ASID
system.cpu.itb.stage2_mmu.stage2_tlb.flush_tlb_mva            0                       # Number of times TLB was flushed by MVA
system.cpu.itb.stage2_mmu.stage2_tlb.flush_tlb_mva_asid            0                       # Number of times TLB was flushed by MVA & ASID
system.cpu.itb.stage2_mmu.stage2_tlb.hits            0                       # DTB hits
system.cpu.itb.stage2_mmu.stage2_tlb.inst_accesses            0                       # ITB inst accesses
system.cpu.itb.stage2_mmu.stage2_tlb.inst_hits            0                       # ITB inst hits
system.cpu.itb.stage2_mmu.stage2_tlb.inst_misses            0                       # ITB inst misses
system.cpu.itb.stage2_mmu.stage2_tlb.misses            0                       # DTB misses
system.cpu.itb.stage2_mmu.stage2_tlb.perms_faults            0                       # Number of TLB faults due to permissions restrictions
system.cpu.itb.stage2_mmu.stage2_tlb.prefetch_faults            0                       # Number of TLB faults due to prefetch
system.cpu.itb.stage2_mmu.stage2_tlb.read_accesses            0                       # DTB read accesses
system.cpu.itb.stage2_mmu.stage2_tlb.read_hits            0                       # DTB read hits
system.cpu.itb.stage2_mmu.stage2_tlb.read_misses            0                       # DTB read misses
system.cpu.itb.stage2_mmu.stage2_tlb.walker.walkRequestOrigin_Requested::Data            0                       # Table walker requests started/completed, data/inst
system.cpu.itb.stage2_mmu.stage2_tlb.walker.walkRequestOrigin_Requested::Inst            0                       # Table walker requests started/completed, data/inst
system.cpu.itb.stage2_mmu.stage2_tlb.walker.walkRequestOrigin_Requested::total            0                       # Table walker requests started/completed, data/inst
system.cpu.itb.stage2_mmu.stage2_tlb.walker.walkRequestOrigin_Completed::Data            0                       # Table walker requests started/completed, data/inst
system.cpu.itb.stage2_mmu.stage2_tlb.walker.walkRequestOrigin_Completed::Inst            0                       # Table walker requests started/completed, data/inst
system.cpu.itb.stage2_mmu.stage2_tlb.walker.walkRequestOrigin_Completed::total            0                       # Table walker requests started/completed, data/inst
system.cpu.itb.stage2_mmu.stage2_tlb.walker.walkRequestOrigin::total            0                       # Table walker requests started/completed, data/inst
system.cpu.itb.stage2_mmu.stage2_tlb.walker.walks            0                       # Table walker walks requested
system.cpu.itb.stage2_mmu.stage2_tlb.write_accesses            0                       # DTB write accesses
system.cpu.itb.stage2_mmu.stage2_tlb.write_hits            0                       # DTB write hits
system.cpu.itb.stage2_mmu.stage2_tlb.write_misses            0                       # DTB write misses
system.cpu.itb.walker.walkRequestOrigin_Requested::Data            0                       # Table walker requests started/completed, data/inst
system.cpu.itb.walker.walkRequestOrigin_Requested::Inst            0                       # Table walker requests started/completed, data/inst
system.cpu.itb.walker.walkRequestOrigin_Requested::total            0                       # Table walker requests started/completed, data/inst
system.cpu.itb.walker.walkRequestOrigin_Completed::Data            0                       # Table walker requests started/completed, data/inst
system.cpu.itb.walker.walkRequestOrigin_Completed::Inst            0                       # Table walker requests started/completed, data/inst
system.cpu.itb.walker.walkRequestOrigin_Completed::total            0                       # Table walker requests started/completed, data/inst
system.cpu.itb.walker.walkRequestOrigin::total            0                       # Table walker requests started/completed, data/inst
system.cpu.itb.walker.walks                         0                       # Table walker walks requested
system.cpu.itb.write_accesses                       0                       # DTB write accesses
system.cpu.itb.write_hits                           0                       # DTB write hits
system.cpu.itb.write_misses                         0                       # DTB write misses
system.cpu.kern.inst.arm                            0                       # number of arm instructions executed
system.cpu.kern.inst.quiesce                        0                       # number of quiesce instructions executed
system.cpu.numCycles                           115214                       # number of cpu cycles simulated
system.cpu.numFetchSuspends                         0                       # Number of times Execute suspended instruction fetching
system.cpu.numWorkItemsCompleted                    0                       # number of work items this cpu completed
system.cpu.numWorkItemsStarted                      0                       # number of work items this cpu started
system.cpu.op_class_0::No_OpClass                   0      0.00%      0.00% # Class of committed instruction
system.cpu.op_class_0::IntAlu                   26705     70.12%     70.12% # Class of committed instruction
system.cpu.op_class_0::IntMult                      2      0.01%     70.12% # Class of committed instruction
system.cpu.op_class_0::IntDiv                       0      0.00%     70.12% # Class of committed instruction
system.cpu.op_class_0::FloatAdd                     0      0.00%     70.12% # Class of committed instruction
system.cpu.op_class_0::FloatCmp                     0      0.00%     70.12% # Class of committed instruction
system.cpu.op_class_0::FloatCvt                     0      0.00%     70.12% # Class of committed instruction
system.cpu.op_class_0::FloatMult                    0      0.00%     70.12% # Class of committed instruction
system.cpu.op_class_0::FloatMultAcc                 0      0.00%     70.12% # Class of committed instruction
system.cpu.op_class_0::FloatDiv                     0      0.00%     70.12% # Class of committed instruction
system.cpu.op_class_0::FloatMisc                    0      0.00%     70.12% # Class of committed instruction
system.cpu.op_class_0::FloatSqrt                    0      0.00%     70.12% # Class of committed instruction
system.cpu.op_class_0::SimdAdd                      0      0.00%     70.12% # Class of committed instruction
system.cpu.op_class_0::SimdAddAcc                   0      0.00%     70.12% # Class of committed instruction
system.cpu.op_class_0::SimdAlu                      0      0.00%     70.12% # Class of committed instruction
system.cpu.op_class_0::SimdCmp                      0      0.00%     70.12% # Class of committed instruction
system.cpu.op_class_0::SimdCvt                      0      0.00%     70.12% # Class of committed instruction
system.cpu.op_class_0::SimdMisc                     0      0.00%     70.12% # Class of committed instruction
system.cpu.op_class_0::SimdMult                     0      0.00%     70.12% # Class of committed instruction
system.cpu.op_class_0::SimdMultAcc                  0      0.00%     70.12% # Class of committed instruction
system.cpu.op_class_0::SimdShift                    0      0.00%     70.12% # Class of committed instruction
system.cpu.op_class_0::SimdShiftAcc                 0      0.00%     70.12% # Class of committed instruction
system.cpu.op_class_0::SimdDiv                      0      0.00%     70.12% # Class of committed instruction
system.cpu.op_class_0::SimdSqrt                     0      0.00%     70.12% # Class of committed instruction
system.cpu.op_class_0::SimdFloatAdd                 0      0.00%     70.12% # Class of committed instruction
system.cpu.op_class_0::SimdFloatAlu                 0      0.00%     70.12% # Class of committed instruction
system.cpu.op_class_0::SimdFloatCmp                 0      0.00%     70.12% # Class of committed instruction
system.cpu.op_class_0::SimdFloatCvt                 0      0.00%     70.12% # Class of committed instruction
system.cpu.op_class_0::SimdFloatDiv                 0      0.00%     70.12% # Class of committed instruction
system.cpu.op_class_0::SimdFloatMisc                0      0.00%     70.12% # Class of committed instruction
system.cpu.op_class_0::SimdFloatMult                0      0.00%     70.12% # Class of committed instruction
system.cpu.op_class_0::SimdFloatMultAcc             0      0.00%     70.12% # Class of committed instruction
system.cpu.op_class_0::SimdFloatSqrt                0      0.00%     70.12% # Class of committed instruction
system.cpu.op_class_0::SimdReduceAdd                0      0.00%     70.12% # Class of committed instruction
system.cpu.op_class_0::SimdReduceAlu                0      0.00%     70.12% # Class of committed instruction
system.cpu.op_class_0::SimdReduceCmp                0      0.00%     70.12% # Class of committed instruction
system.cpu.op_class_0::SimdFloatReduceAdd            0      0.00%     70.12% # Class of committed instruction
system.cpu.op_class_0::SimdFloatReduceCmp            0      0.00%     70.12% # Class of committed instruction
system.cpu.op_class_0::SimdAes                      0      0.00%     70.12% # Class of committed instruction
system.cpu.op_class_0::SimdAesMix                   0      0.00%     70.12% # Class of committed instruction
system.cpu.op_class_0::SimdSha1Hash                 0      0.00%     70.12% # Class of committed instruction
system.cpu.op_class_0::SimdSha1Hash2                0      0.00%     70.12% # Class of committed instruction
system.cpu.op_class_0::SimdSha256Hash               0      0.00%     70.12% # Class of committed instruction
system.cpu.op_class_0::SimdSha256Hash2              0      0.00%     70.12% # Class of committed instruction
system.cpu.op_class_0::SimdShaSigma2                0      0.00%     70.12% # Class of committed instruction
system.cpu.op_class_0::SimdShaSigma3                0      0.00%     70.12% # Class of committed instruction
system.cpu.op_class_0::SimdPredAlu                  0      0.00%     70.12% # Class of committed instruction
system.cpu.op_class_0::MemRead                   8081     21.22%     91.34% # Class of committed instruction
system.cpu.op_class_0::MemWrite                  3299      8.66%    100.00% # Class of committed instruction
system.cpu.op_class_0::FloatMemRead                 0      0.00%    100.00% # Class of committed instruction
system.cpu.op_class_0::FloatMemWrite                0      0.00%    100.00% # Class of committed instruction
system.cpu.op_class_0::IprAccess                    0      0.00%    100.00% # Class of committed instruction
system.cpu.op_class_0::InstPrefetch                 0      0.00%    100.00% # Class of committed instruction
system.cpu.op_class_0::total                    38087                       # Class of committed instruction
system.cpu.tickCycles                           99047                       # Number of cycles that the object actually ticked
system.membus.snoop_filter.hit_multi_requests            0                       # Number of requests hitting in the snoop filter with multiple (>1) holders of the requested data.
system.membus.snoop_filter.hit_multi_snoops            0                       # Number of snoops hitting in the snoop filter with multiple (>1) holders of the requested data.
system.membus.snoop_filter.hit_single_requests           39                       # Number of requests hitting in the snoop filter with a single holder of the requested data.
system.membus.snoop_filter.hit_single_snoops            0                       # Number of snoops hitting in the snoop filter with a single holder of the requested data.
system.membus.snoop_filter.tot_requests          3230                       # Total number of requests made to the snoop filter.
system.membus.snoop_filter.tot_snoops               0                       # Total number of snoops made to the snoop filter.
system.bridge.pwrStateResidencyTicks::UNDEFINED    963885000                       # Cumulative time (in ticks) in various power states
system.voltage_domain.voltage                       1                       # Voltage in Volts
system.iocache.pwrStateResidencyTicks::UNDEFINED    963885000                       # Cumulative time (in ticks) in various power states
system.iocache.blocked_cycles::no_mshrs             0                       # number of cycles access was blocked
system.iocache.blocked_cycles::no_targets            0                       # number of cycles access was blocked
system.iocache.blocked::no_mshrs                    0                       # number of cycles access was blocked
system.iocache.blocked::no_targets                  0                       # number of cycles access was blocked
system.iocache.avg_blocked_cycles::no_mshrs          nan                       # average number of cycles each access was blocked
system.iocache.avg_blocked_cycles::no_targets          nan                       # average number of cycles each access was blocked
system.iocache.replacements                         0                       # number of replacements
system.iocache.tags.pwrStateResidencyTicks::UNDEFINED    963885000                       # Cumulative time (in ticks) in various power states
system.iocache.tags.tagsinuse                       0                       # Cycle average of tags in use
system.iocache.tags.total_refs                      0                       # Total number of references to valid blocks.
system.iocache.tags.sampled_refs                    0                       # Sample count of references to valid blocks.
system.iocache.tags.avg_refs                      nan                       # Average number of references to valid blocks.
system.iocache.tags.warmup_cycle                    0                       # Cycle when the warmup percentage was hit.
system.iocache.tags.tag_accesses                    0                       # Number of tag accesses
system.iocache.tags.data_accesses                   0                       # Number of data accesses
system.membus.pwrStateResidencyTicks::UNDEFINED    963885000                       # Cumulative time (in ticks) in various power states
system.membus.trans_dist::ReadReq                2052                       # Transaction distribution
system.membus.trans_dist::ReadResp               2169                       # Transaction distribution
system.membus.trans_dist::WriteReq               1059                       # Transaction distribution
system.membus.trans_dist::WriteResp              1059                       # Transaction distribution
system.membus.trans_dist::WritebackDirty           12                       # Transaction distribution
system.membus.trans_dist::CleanEvict               14                       # Transaction distribution
system.membus.trans_dist::ReadExReq                 7                       # Transaction distribution
system.membus.trans_dist::ReadExResp                8                       # Transaction distribution
system.membus.trans_dist::ReadCleanReq             99                       # Transaction distribution
system.membus.trans_dist::ReadSharedReq            18                       # Transaction distribution
system.membus.trans_dist::CleanInvalidReq         3072                       # Transaction distribution
system.membus.pkt_count_system.cpu.icache.mem_side::system.realview.bootmem.port          198                       # Packet count per connected master and slave (bytes)
system.membus.pkt_count_system.cpu.icache.mem_side::total          198                       # Packet count per connected master and slave (bytes)
system.membus.pkt_count_system.cpu.dcache.mem_side::system.realview.bootmem.port           22                       # Packet count per connected master and slave (bytes)
system.membus.pkt_count_system.cpu.dcache.mem_side::system.realview.gic.pio           16                       # Packet count per connected master and slave (bytes)
system.membus.pkt_count_system.cpu.dcache.mem_side::system.mem_ctrls.port         3127                       # Packet count per connected master and slave (bytes)
system.membus.pkt_count_system.cpu.dcache.mem_side::system.acctest.mem2cls.slave           62                       # Packet count per connected master and slave (bytes)
system.membus.pkt_count_system.cpu.dcache.mem_side::total         3227                       # Packet count per connected master and slave (bytes)
system.membus.pkt_count_system.acctest.coherency_bus.master[0]::system.mem_ctrls.port         6144                       # Packet count per connected master and slave (bytes)
system.membus.pkt_count_system.acctest.coherency_bus.master[0]::total         6144                       # Packet count per connected master and slave (bytes)
system.membus.pkt_count::total                   9569                       # Packet count per connected master and slave (bytes)
system.membus.pkt_size_system.cpu.icache.mem_side::system.realview.bootmem.port         6336                       # Cumulative packet size per connected master and slave (bytes)
system.membus.pkt_size_system.cpu.icache.mem_side::total         6336                       # Cumulative packet size per connected master and slave (bytes)
system.membus.pkt_size_system.cpu.dcache.mem_side::system.realview.bootmem.port          704                       # Cumulative packet size per connected master and slave (bytes)
system.membus.pkt_size_system.cpu.dcache.mem_side::system.realview.gic.pio           32                       # Cumulative packet size per connected master and slave (bytes)
system.membus.pkt_size_system.cpu.dcache.mem_side::system.mem_ctrls.port         1728                       # Cumulative packet size per connected master and slave (bytes)
system.membus.pkt_size_system.cpu.dcache.mem_side::system.acctest.mem2cls.slave           88                       # Cumulative packet size per connected master and slave (bytes)
system.membus.pkt_size_system.cpu.dcache.mem_side::total         2552                       # Cumulative packet size per connected master and slave (bytes)
system.membus.pkt_size_system.acctest.coherency_bus.master[0]::system.mem_ctrls.port       196608                       # Cumulative packet size per connected master and slave (bytes)
system.membus.pkt_size_system.acctest.coherency_bus.master[0]::total       196608                       # Cumulative packet size per connected master and slave (bytes)
system.membus.pkt_size::total                  205496                       # Cumulative packet size per connected master and slave (bytes)
system.membus.snoops                                0                       # Total snoops (count)
system.membus.snoopTraffic                          0                       # Total snoop traffic (bytes)
system.membus.snoop_fanout::samples              6315                       # Request fanout histogram
system.membus.snoop_fanout::mean             0.002059                       # Request fanout histogram
system.membus.snoop_fanout::stdev            0.045329                       # Request fanout histogram
system.membus.snoop_fanout::underflows              0      0.00%      0.00% # Request fanout histogram
system.membus.snoop_fanout::0                    6302     99.79%     99.79% # Request fanout histogram
system.membus.snoop_fanout::1                      13      0.21%    100.00% # Request fanout histogram
system.membus.snoop_fanout::2                       0      0.00%    100.00% # Request fanout histogram
system.membus.snoop_fanout::3                       0      0.00%    100.00% # Request fanout histogram
system.membus.snoop_fanout::4                       0      0.00%    100.00% # Request fanout histogram
system.membus.snoop_fanout::overflows               0      0.00%    100.00% # Request fanout histogram
system.membus.snoop_fanout::min_value               0                       # Request fanout histogram
system.membus.snoop_fanout::max_value               1                       # Request fanout histogram
system.membus.snoop_fanout::total                6315                       # Request fanout histogram
system.membus.reqLayer6.occupancy            12592875                       # Layer occupancy (ticks)
system.membus.reqLayer6.utilization              17.5                       # Layer utilization (%)
system.membus.reqLayer7.occupancy               79750                       # Layer occupancy (ticks)
system.membus.reqLayer7.utilization               0.1                       # Layer utilization (%)
system.membus.reqLayer1.occupancy              177640                       # Layer occupancy (ticks)
system.membus.reqLayer1.utilization               0.2                       # Layer utilization (%)
system.membus.reqLayer2.occupancy               15750                       # Layer occupancy (ticks)
system.membus.reqLayer2.utilization               0.0                       # Layer utilization (%)
system.membus.badaddr_responder.pwrStateResidencyTicks::UNDEFINED    963885000                       # Cumulative time (in ticks) in various power states
system.membus.respLayer4.occupancy             186910                       # Layer occupancy (ticks)
system.membus.respLayer4.utilization              0.3                       # Layer utilization (%)
system.membus.respLayer7.occupancy           13037515                       # Layer occupancy (ticks)
system.membus.respLayer7.utilization             18.1                       # Layer utilization (%)
system.membus.respLayer3.occupancy             496500                       # Layer occupancy (ticks)
system.membus.respLayer3.utilization              0.7                       # Layer utilization (%)
system.acctest.harris_non_max0_spm.pwrStateResidencyTicks::UNDEFINED    963885000                       # Cumulative time (in ticks) in various power states
system.acctest.elem_matrix2_spm.pwrStateResidencyTicks::UNDEFINED    963885000                       # Cumulative time (in ticks) in various power states
system.acctest.elem_matrix3_spm.pwrStateResidencyTicks::UNDEFINED    963885000                       # Cumulative time (in ticks) in various power states
system.acctest.local_bus.pwrStateResidencyTicks::UNDEFINED    963885000                       # Cumulative time (in ticks) in various power states
system.acctest.local_bus.trans_dist::ReadReq         2048                       # Transaction distribution
system.acctest.local_bus.trans_dist::ReadResp         2048                       # Transaction distribution
system.acctest.local_bus.trans_dist::WriteReq         4127                       # Transaction distribution
system.acctest.local_bus.trans_dist::WriteResp         4127                       # Transaction distribution
system.acctest.local_bus.pkt_count_system.acctest.mem2cls.master::system.acctest.elem_matrix0.pio           20                       # Packet count per connected master and slave (bytes)
system.acctest.local_bus.pkt_count_system.acctest.mem2cls.master::system.acctest.elem_matrix0_dma.pio           42                       # Packet count per connected master and slave (bytes)
system.acctest.local_bus.pkt_count_system.acctest.mem2cls.master::total           62                       # Packet count per connected master and slave (bytes)
system.acctest.local_bus.pkt_count_system.acctest.elem_matrix0_dma.dma::system.acctest.elem_matrix0_spm.port        12288                       # Packet count per connected master and slave (bytes)
system.acctest.local_bus.pkt_count_system.acctest.elem_matrix0_dma.dma::total        12288                       # Packet count per connected master and slave (bytes)
system.acctest.local_bus.pkt_count::total        12350                       # Packet count per connected master and slave (bytes)
system.acctest.local_bus.pkt_size_system.acctest.mem2cls.master::system.acctest.elem_matrix0.pio           22                       # Cumulative packet size per connected master and slave (bytes)
system.acctest.local_bus.pkt_size_system.acctest.mem2cls.master::system.acctest.elem_matrix0_dma.pio           66                       # Cumulative packet size per connected master and slave (bytes)
system.acctest.local_bus.pkt_size_system.acctest.mem2cls.master::total           88                       # Cumulative packet size per connected master and slave (bytes)
system.acctest.local_bus.pkt_size_system.acctest.elem_matrix0_dma.dma::system.acctest.elem_matrix0_spm.port       196608                       # Cumulative packet size per connected master and slave (bytes)
system.acctest.local_bus.pkt_size_system.acctest.elem_matrix0_dma.dma::total       196608                       # Cumulative packet size per connected master and slave (bytes)
system.acctest.local_bus.pkt_size::total       196696                       # Cumulative packet size per connected master and slave (bytes)
system.acctest.local_bus.reqLayer0.occupancy     16599056                       # Layer occupancy (ticks)
system.acctest.local_bus.reqLayer0.utilization         23.1                       # Layer utilization (%)
system.acctest.local_bus.respLayer0.occupancy     10271000                       # Layer occupancy (ticks)
system.acctest.local_bus.respLayer0.utilization         14.3                       # Layer utilization (%)
system.acctest.isp0.pwrStateResidencyTicks::UNDEFINED    963885000                       # Cumulative time (in ticks) in various power states
system.acctest.edge_tracking0.pwrStateResidencyTicks::UNDEFINED    963885000                       # Cumulative time (in ticks) in various power states
system.acctest.grayscale0_spm.pwrStateResidencyTicks::UNDEFINED    963885000                       # Cumulative time (in ticks) in various power states
system.acctest.elem_matrix1_dma.pwrStateResidencyTicks::UNDEFINED    963885000                       # Cumulative time (in ticks) in various power states
system.acctest.mem2cls.pwrStateResidencyTicks::UNDEFINED    963885000                       # Cumulative time (in ticks) in various power states
system.acctest.isp0_dma.pwrStateResidencyTicks::UNDEFINED    963885000                       # Cumulative time (in ticks) in various power states
system.acctest.grayscale0_dma.pwrStateResidencyTicks::UNDEFINED    963885000                       # Cumulative time (in ticks) in various power states
system.acctest.convolution0.pwrStateResidencyTicks::UNDEFINED    963885000                       # Cumulative time (in ticks) in various power states
system.acctest.convolution1.pwrStateResidencyTicks::UNDEFINED    963885000                       # Cumulative time (in ticks) in various power states
system.acctest.isp0_spm.pwrStateResidencyTicks::UNDEFINED    963885000                       # Cumulative time (in ticks) in various power states
system.acctest.coherency_bus.pwrStateResidencyTicks::UNDEFINED    963885000                       # Cumulative time (in ticks) in various power states
system.acctest.coherency_bus.trans_dist::ReadReq         2048                       # Transaction distribution
system.acctest.coherency_bus.trans_dist::ReadResp         2048                       # Transaction distribution
system.acctest.coherency_bus.trans_dist::WriteReq         1024                       # Transaction distribution
system.acctest.coherency_bus.trans_dist::WriteResp         1024                       # Transaction distribution
system.acctest.coherency_bus.pkt_count_system.acctest.elem_matrix0_dma.dma::system.membus.slave[7]         6144                       # Packet count per connected master and slave (bytes)
system.acctest.coherency_bus.pkt_count::total         6144                       # Packet count per connected master and slave (bytes)
system.acctest.coherency_bus.pkt_size_system.acctest.elem_matrix0_dma.dma::system.membus.slave[7]       196608                       # Cumulative packet size per connected master and slave (bytes)
system.acctest.coherency_bus.pkt_size::total       196608                       # Cumulative packet size per connected master and slave (bytes)
system.acctest.coherency_bus.snoops                 0                       # Total snoops (count)
system.acctest.coherency_bus.snoopTraffic            0                       # Total snoop traffic (bytes)
system.acctest.coherency_bus.snoop_fanout::samples         3087                       # Request fanout histogram
system.acctest.coherency_bus.snoop_fanout::mean            0                       # Request fanout histogram
system.acctest.coherency_bus.snoop_fanout::stdev            0                       # Request fanout histogram
system.acctest.coherency_bus.snoop_fanout::underflows            0      0.00%      0.00% # Request fanout histogram
system.acctest.coherency_bus.snoop_fanout::0         3087    100.00%    100.00% # Request fanout histogram
system.acctest.coherency_bus.snoop_fanout::overflows            0      0.00%    100.00% # Request fanout histogram
system.acctest.coherency_bus.snoop_fanout::min_value            0                       # Request fanout histogram
system.acctest.coherency_bus.snoop_fanout::max_value            0                       # Request fanout histogram
system.acctest.coherency_bus.snoop_fanout::total         3087                       # Request fanout histogram
system.acctest.coherency_bus.reqLayer0.occupancy      8329000                       # Layer occupancy (ticks)
system.acctest.coherency_bus.reqLayer0.utilization         11.6                       # Layer utilization (%)
system.acctest.coherency_bus.respLayer0.occupancy     11264000                       # Layer occupancy (ticks)
system.acctest.coherency_bus.respLayer0.utilization         15.6                       # Layer utilization (%)
system.acctest.convolution0_spm.pwrStateResidencyTicks::UNDEFINED    963885000                       # Cumulative time (in ticks) in various power states
system.acctest.elem_matrix0_dma.pwrStateResidencyTicks::UNDEFINED    963885000                       # Cumulative time (in ticks) in various power states
system.acctest.grayscale0.pwrStateResidencyTicks::UNDEFINED    963885000                       # Cumulative time (in ticks) in various power states
system.acctest.canny_non_max0.pwrStateResidencyTicks::UNDEFINED    963885000                       # Cumulative time (in ticks) in various power states
system.acctest.elem_matrix0_spm.pwrStateResidencyTicks::UNDEFINED    963885000                       # Cumulative time (in ticks) in various power states
system.acctest.elem_matrix0_spm.bytes_read::.acctest.elem_matrix0.system.acctest.elem_matrix0       131072                       # Number of bytes read from this memory
system.acctest.elem_matrix0_spm.bytes_read::.acctest.elem_matrix0_dma        65536                       # Number of bytes read from this memory
system.acctest.elem_matrix0_spm.bytes_read::total       196608                       # Number of bytes read from this memory
system.acctest.elem_matrix0_spm.bytes_written::.acctest.elem_matrix0.system.acctest.elem_matrix0        65536                       # Number of bytes written to this memory
system.acctest.elem_matrix0_spm.bytes_written::.acctest.elem_matrix0_dma       131072                       # Number of bytes written to this memory
system.acctest.elem_matrix0_spm.bytes_written::total       196608                       # Number of bytes written to this memory
system.acctest.elem_matrix0_spm.num_reads::.acctest.elem_matrix0.system.acctest.elem_matrix0        32768                       # Number of read requests responded to by this memory
system.acctest.elem_matrix0_spm.num_reads::.acctest.elem_matrix0_dma         2048                       # Number of read requests responded to by this memory
system.acctest.elem_matrix0_spm.num_reads::total        34816                       # Number of read requests responded to by this memory
system.acctest.elem_matrix0_spm.num_writes::.acctest.elem_matrix0.system.acctest.elem_matrix0        16384                       # Number of write requests responded to by this memory
system.acctest.elem_matrix0_spm.num_writes::.acctest.elem_matrix0_dma         4096                       # Number of write requests responded to by this memory
system.acctest.elem_matrix0_spm.num_writes::total        20480                       # Number of write requests responded to by this memory
system.acctest.elem_matrix0_spm.bw_read::.acctest.elem_matrix0.system.acctest.elem_matrix0   1820223237                       # Total read bandwidth from this memory (bytes/s)
system.acctest.elem_matrix0_spm.bw_read::.acctest.elem_matrix0_dma    910111618                       # Total read bandwidth from this memory (bytes/s)
system.acctest.elem_matrix0_spm.bw_read::total   2730334855                       # Total read bandwidth from this memory (bytes/s)
system.acctest.elem_matrix0_spm.bw_write::.acctest.elem_matrix0.system.acctest.elem_matrix0    910111618                       # Write bandwidth from this memory (bytes/s)
system.acctest.elem_matrix0_spm.bw_write::.acctest.elem_matrix0_dma   1820223237                       # Write bandwidth from this memory (bytes/s)
system.acctest.elem_matrix0_spm.bw_write::total   2730334855                       # Write bandwidth from this memory (bytes/s)
system.acctest.elem_matrix0_spm.bw_total::.acctest.elem_matrix0.system.acctest.elem_matrix0   2730334855                       # Total bandwidth to/from this memory (bytes/s)
system.acctest.elem_matrix0_spm.bw_total::.acctest.elem_matrix0_dma   2730334855                       # Total bandwidth to/from this memory (bytes/s)
system.acctest.elem_matrix0_spm.bw_total::total   5460669710                       # Total bandwidth to/from this memory (bytes/s)
system.acctest.convolution0_dma.pwrStateResidencyTicks::UNDEFINED    963885000                       # Cumulative time (in ticks) in various power states
system.acctest.convolution1_spm.pwrStateResidencyTicks::UNDEFINED    963885000                       # Cumulative time (in ticks) in various power states
system.acctest.elem_matrix3_dma.pwrStateResidencyTicks::UNDEFINED    963885000                       # Cumulative time (in ticks) in various power states
system.acctest.edge_tracking0_spm.pwrStateResidencyTicks::UNDEFINED    963885000                       # Cumulative time (in ticks) in various power states
system.acctest.canny_non_max0_spm.pwrStateResidencyTicks::UNDEFINED    963885000                       # Cumulative time (in ticks) in various power states
system.acctest.canny_non_max0_dma.pwrStateResidencyTicks::UNDEFINED    963885000                       # Cumulative time (in ticks) in various power states
system.acctest.convolution1_dma.pwrStateResidencyTicks::UNDEFINED    963885000                       # Cumulative time (in ticks) in various power states
system.acctest.elem_matrix1_spm.pwrStateResidencyTicks::UNDEFINED    963885000                       # Cumulative time (in ticks) in various power states
system.acctest.elem_matrix2_dma.pwrStateResidencyTicks::UNDEFINED    963885000                       # Cumulative time (in ticks) in various power states
system.acctest.harris_non_max0.pwrStateResidencyTicks::UNDEFINED    963885000                       # Cumulative time (in ticks) in various power states
system.acctest.edge_tracking0_dma.pwrStateResidencyTicks::UNDEFINED    963885000                       # Cumulative time (in ticks) in various power states
system.acctest.harris_non_max0_dma.pwrStateResidencyTicks::UNDEFINED    963885000                       # Cumulative time (in ticks) in various power states
system.acctest.elem_matrix1.pwrStateResidencyTicks::UNDEFINED    963885000                       # Cumulative time (in ticks) in various power states
system.acctest.elem_matrix0.pwrStateResidencyTicks::UNDEFINED    963885000                       # Cumulative time (in ticks) in various power states
system.acctest.elem_matrix3.pwrStateResidencyTicks::UNDEFINED    963885000                       # Cumulative time (in ticks) in various power states
system.acctest.elem_matrix2.pwrStateResidencyTicks::UNDEFINED    963885000                       # Cumulative time (in ticks) in various power states
system.clk_domain.clock                          1000                       # Clock period in ticks
system.realview.hdlcd.pwrStateResidencyTicks::UNDEFINED    963885000                       # Cumulative time (in ticks) in various power states
system.realview.realview_io.pwrStateResidencyTicks::UNDEFINED    963885000                       # Cumulative time (in ticks) in various power states
system.realview.bootmem.pwrStateResidencyTicks::UNDEFINED    963885000                       # Cumulative time (in ticks) in various power states
system.realview.bootmem.bytes_read::.cpu.inst         6336                       # Number of bytes read from this memory
system.realview.bootmem.bytes_read::.cpu.data          704                       # Number of bytes read from this memory
system.realview.bootmem.bytes_read::total         7040                       # Number of bytes read from this memory
system.realview.bootmem.bytes_inst_read::.cpu.inst         6336                       # Number of instructions bytes read from this memory
system.realview.bootmem.bytes_inst_read::total         6336                       # Number of instructions bytes read from this memory
system.realview.bootmem.num_reads::.cpu.inst           99                       # Number of read requests responded to by this memory
system.realview.bootmem.num_reads::.cpu.data           11                       # Number of read requests responded to by this memory
system.realview.bootmem.num_reads::total          110                       # Number of read requests responded to by this memory
system.realview.bootmem.bw_read::.cpu.inst     87989307                       # Total read bandwidth from this memory (bytes/s)
system.realview.bootmem.bw_read::.cpu.data      9776590                       # Total read bandwidth from this memory (bytes/s)
system.realview.bootmem.bw_read::total       97765897                       # Total read bandwidth from this memory (bytes/s)
system.realview.bootmem.bw_inst_read::.cpu.inst     87989307                       # Instruction read bandwidth from this memory (bytes/s)
system.realview.bootmem.bw_inst_read::total     87989307                       # Instruction read bandwidth from this memory (bytes/s)
system.realview.bootmem.bw_total::.cpu.inst     87989307                       # Total bandwidth to/from this memory (bytes/s)
system.realview.bootmem.bw_total::.cpu.data      9776590                       # Total bandwidth to/from this memory (bytes/s)
system.realview.bootmem.bw_total::total      97765897                       # Total bandwidth to/from this memory (bytes/s)
system.realview.pci_host.pwrStateResidencyTicks::UNDEFINED    963885000                       # Cumulative time (in ticks) in various power states
system.realview.rtc.pwrStateResidencyTicks::UNDEFINED    963885000                       # Cumulative time (in ticks) in various power states
system.realview.uart.pwrStateResidencyTicks::UNDEFINED    963885000                       # Cumulative time (in ticks) in various power states
system.realview.gicv2m.pwrStateResidencyTicks::UNDEFINED    963885000                       # Cumulative time (in ticks) in various power states
system.realview.mcc.osc_mcc.clock               20000                       # Clock period in ticks
system.realview.mcc.osc_peripheral.clock        41667                       # Clock period in ticks
system.realview.mcc.osc_clcd.clock              42105                       # Clock period in ticks
system.realview.mcc.osc_system_bus.clock        41667                       # Clock period in ticks
system.realview.dcc.osc_smb.clock               20000                       # Clock period in ticks
system.realview.dcc.osc_hsbm.clock              25000                       # Clock period in ticks
system.realview.dcc.osc_ddr.clock               25000                       # Clock period in ticks
system.realview.dcc.osc_cpu.clock               16667                       # Clock period in ticks
system.realview.dcc.osc_sys.clock               16667                       # Clock period in ticks
system.realview.dcc.osc_pxl.clock               42105                       # Clock period in ticks
system.realview.generic_timer.pwrStateResidencyTicks::UNDEFINED    963885000                       # Cumulative time (in ticks) in various power states
system.realview.kmi1.pwrStateResidencyTicks::UNDEFINED    963885000                       # Cumulative time (in ticks) in various power states
system.realview.kmi0.pwrStateResidencyTicks::UNDEFINED    963885000                       # Cumulative time (in ticks) in various power states
system.realview.gic.pwrStateResidencyTicks::UNDEFINED    963885000                       # Cumulative time (in ticks) in various power states
system.realview.clock24MHz.clock                41667                       # Clock period in ticks
system.realview.clock24MHz.voltage_domain.voltage     3.300000                       # Voltage in Volts
system.realview.energy_ctrl.pwrStateResidencyTicks::UNDEFINED    963885000                       # Cumulative time (in ticks) in various power states
system.realview.vio1.pwrStateResidencyTicks::UNDEFINED    963885000                       # Cumulative time (in ticks) in various power states
system.realview.vio0.pwrStateResidencyTicks::UNDEFINED    963885000                       # Cumulative time (in ticks) in various power states
system.realview.vgic.pwrStateResidencyTicks::UNDEFINED    963885000                       # Cumulative time (in ticks) in various power states
system.pci_ide.pwrStateResidencyTicks::UNDEFINED    963885000                       # Cumulative time (in ticks) in various power states
system.cpu_voltage_domain.voltage                   1                       # Voltage in Volts
system.mem_ctrls.pwrStateResidencyTicks::UNDEFINED    963885000                       # Cumulative time (in ticks) in various power states
system.mem_ctrls.bytes_read::.acctest.elem_matrix0_dma       131072                       # Number of bytes read from this memory
system.mem_ctrls.bytes_read::.cpu.data            960                       # Number of bytes read from this memory
system.mem_ctrls.bytes_read::total             132032                       # Number of bytes read from this memory
system.mem_ctrls.bytes_written::.writebacks          768                       # Number of bytes written to this memory
system.mem_ctrls.bytes_written::.acctest.elem_matrix0_dma        65536                       # Number of bytes written to this memory
system.mem_ctrls.bytes_written::total           66304                       # Number of bytes written to this memory
system.mem_ctrls.num_reads::.acctest.elem_matrix0_dma         2048                       # Number of read requests responded to by this memory
system.mem_ctrls.num_reads::.cpu.data              15                       # Number of read requests responded to by this memory
system.mem_ctrls.num_reads::total                2063                       # Number of read requests responded to by this memory
system.mem_ctrls.num_writes::.writebacks           12                       # Number of write requests responded to by this memory
system.mem_ctrls.num_writes::.acctest.elem_matrix0_dma         1024                       # Number of write requests responded to by this memory
system.mem_ctrls.num_writes::total               1036                       # Number of write requests responded to by this memory
system.mem_ctrls.bw_read::.acctest.elem_matrix0_dma   1820223237                       # Total read bandwidth from this memory (bytes/s)
system.mem_ctrls.bw_read::.cpu.data          13331713                       # Total read bandwidth from this memory (bytes/s)
system.mem_ctrls.bw_read::total            1833554950                       # Total read bandwidth from this memory (bytes/s)
system.mem_ctrls.bw_write::.writebacks       10665371                       # Write bandwidth from this memory (bytes/s)
system.mem_ctrls.bw_write::.acctest.elem_matrix0_dma    910111618                       # Write bandwidth from this memory (bytes/s)
system.mem_ctrls.bw_write::total            920776989                       # Write bandwidth from this memory (bytes/s)
system.mem_ctrls.bw_total::.writebacks       10665371                       # Total bandwidth to/from this memory (bytes/s)
system.mem_ctrls.bw_total::.acctest.elem_matrix0_dma   2730334855                       # Total bandwidth to/from this memory (bytes/s)
system.mem_ctrls.bw_total::.cpu.data         13331713                       # Total bandwidth to/from this memory (bytes/s)
system.mem_ctrls.bw_total::total           2754331939                       # Total bandwidth to/from this memory (bytes/s)
system.mem_ctrls.avgPriority_.writebacks::samples        12.00                       # Average QoS priority value for accepted requests
system.mem_ctrls.avgPriority_.acctest.elem_matrix0_dma::samples      3072.00                       # Average QoS priority value for accepted requests
system.mem_ctrls.avgPriority_.cpu.data::samples        13.00                       # Average QoS priority value for accepted requests
system.mem_ctrls.priorityMinLatency      0.000000026250                       # per QoS priority minimum request to response latency (s)
system.mem_ctrls.priorityMaxLatency      0.000134979500                       # per QoS priority maximum request to response latency (s)
system.mem_ctrls.numReadWriteTurnArounds           28                       # Number of turnarounds from READ to WRITE
system.mem_ctrls.numWriteReadTurnArounds           28                       # Number of turnarounds from WRITE to READ
system.mem_ctrls.numStayReadState                4164                       # Number of times bus staying in READ state
system.mem_ctrls.numStayWriteState               1090                       # Number of times bus staying in WRITE state
system.mem_ctrls.readReqs                        2062                       # Number of read requests accepted
system.mem_ctrls.writeReqs                       1036                       # Number of write requests accepted
system.mem_ctrls.readBursts                      2062                       # Number of DRAM read bursts, including those serviced by the write queue
system.mem_ctrls.writeBursts                     1036                       # Number of DRAM write bursts, including those merged in the write queue
system.mem_ctrls.servicedByWrQ                      1                       # Number of DRAM read bursts serviced by the write queue
system.mem_ctrls.mergedWrBursts                     0                       # Number of DRAM write bursts merged with an existing one
system.mem_ctrls.neitherReadNorWriteReqs            0                       # Number of requests that are neither read nor write
system.mem_ctrls.perBankRdBursts::0               128                       # Per bank write bursts
system.mem_ctrls.perBankRdBursts::1               129                       # Per bank write bursts
system.mem_ctrls.perBankRdBursts::2               128                       # Per bank write bursts
system.mem_ctrls.perBankRdBursts::3               128                       # Per bank write bursts
system.mem_ctrls.perBankRdBursts::4               130                       # Per bank write bursts
system.mem_ctrls.perBankRdBursts::5               129                       # Per bank write bursts
system.mem_ctrls.perBankRdBursts::6               128                       # Per bank write bursts
system.mem_ctrls.perBankRdBursts::7               137                       # Per bank write bursts
system.mem_ctrls.perBankRdBursts::8               128                       # Per bank write bursts
system.mem_ctrls.perBankRdBursts::9               128                       # Per bank write bursts
system.mem_ctrls.perBankRdBursts::10              128                       # Per bank write bursts
system.mem_ctrls.perBankRdBursts::11              128                       # Per bank write bursts
system.mem_ctrls.perBankRdBursts::12              128                       # Per bank write bursts
system.mem_ctrls.perBankRdBursts::13              128                       # Per bank write bursts
system.mem_ctrls.perBankRdBursts::14              128                       # Per bank write bursts
system.mem_ctrls.perBankRdBursts::15              128                       # Per bank write bursts
system.mem_ctrls.perBankWrBursts::0                70                       # Per bank write bursts
system.mem_ctrls.perBankWrBursts::1                72                       # Per bank write bursts
system.mem_ctrls.perBankWrBursts::2                75                       # Per bank write bursts
system.mem_ctrls.perBankWrBursts::3                60                       # Per bank write bursts
system.mem_ctrls.perBankWrBursts::4                55                       # Per bank write bursts
system.mem_ctrls.perBankWrBursts::5                65                       # Per bank write bursts
system.mem_ctrls.perBankWrBursts::6                64                       # Per bank write bursts
system.mem_ctrls.perBankWrBursts::7                65                       # Per bank write bursts
system.mem_ctrls.perBankWrBursts::8                64                       # Per bank write bursts
system.mem_ctrls.perBankWrBursts::9                64                       # Per bank write bursts
system.mem_ctrls.perBankWrBursts::10               64                       # Per bank write bursts
system.mem_ctrls.perBankWrBursts::11               64                       # Per bank write bursts
system.mem_ctrls.perBankWrBursts::12               72                       # Per bank write bursts
system.mem_ctrls.perBankWrBursts::13               64                       # Per bank write bursts
system.mem_ctrls.perBankWrBursts::14               64                       # Per bank write bursts
system.mem_ctrls.perBankWrBursts::15               70                       # Per bank write bursts
system.mem_ctrls.avgRdQLen                       3.66                       # Average read queue length when enqueuing
system.mem_ctrls.avgWrQLen                      24.92                       # Average write queue length when enqueuing
system.mem_ctrls.totQLat                     65288640                       # Total ticks spent queuing
system.mem_ctrls.totBusLat                   10305000                       # Total ticks spent in databus transfers
system.mem_ctrls.totMemAccLat               119389890                       # Total ticks spent from burst creation until serviced by the DRAM
system.mem_ctrls.avgQLat                     31678.14                       # Average queueing delay per DRAM burst
system.mem_ctrls.avgBusLat                    5000.00                       # Average bus latency per DRAM burst
system.mem_ctrls.avgMemAccLat                57928.14                       # Average memory access latency per DRAM burst
system.mem_ctrls.numRdRetry                         0                       # Number of times read queue was full causing retry
system.mem_ctrls.numWrRetry                         0                       # Number of times write queue was full causing retry
system.mem_ctrls.readRowHits                     1918                       # Number of row buffer hits during reads
system.mem_ctrls.writeRowHits                     973                       # Number of row buffer hits during writes
system.mem_ctrls.readRowHitRate                 93.06                       # Row buffer hit rate for reads
system.mem_ctrls.writeRowHitRate                93.92                       # Row buffer hit rate for writes
system.mem_ctrls.readPktSize::0                     0                       # Read request sizes (log2)
system.mem_ctrls.readPktSize::1                     0                       # Read request sizes (log2)
system.mem_ctrls.readPktSize::2                     0                       # Read request sizes (log2)
system.mem_ctrls.readPktSize::3                     0                       # Read request sizes (log2)
system.mem_ctrls.readPktSize::4                     0                       # Read request sizes (log2)
system.mem_ctrls.readPktSize::5                     0                       # Read request sizes (log2)
system.mem_ctrls.readPktSize::6                  2062                       # Read request sizes (log2)
system.mem_ctrls.writePktSize::0                    0                       # Write request sizes (log2)
system.mem_ctrls.writePktSize::1                    0                       # Write request sizes (log2)
system.mem_ctrls.writePktSize::2                    0                       # Write request sizes (log2)
system.mem_ctrls.writePktSize::3                    0                       # Write request sizes (log2)
system.mem_ctrls.writePktSize::4                    0                       # Write request sizes (log2)
system.mem_ctrls.writePktSize::5                    0                       # Write request sizes (log2)
system.mem_ctrls.writePktSize::6                 1036                       # Write request sizes (log2)
system.mem_ctrls.rdQLenPdf::0                      13                       # What read queue length does an incoming req see
system.mem_ctrls.rdQLenPdf::1                       3                       # What read queue length does an incoming req see
system.mem_ctrls.rdQLenPdf::2                      19                       # What read queue length does an incoming req see
system.mem_ctrls.rdQLenPdf::3                      79                       # What read queue length does an incoming req see
system.mem_ctrls.rdQLenPdf::4                    1730                       # What read queue length does an incoming req see
system.mem_ctrls.rdQLenPdf::5                      74                       # What read queue length does an incoming req see
system.mem_ctrls.rdQLenPdf::6                      73                       # What read queue length does an incoming req see
system.mem_ctrls.rdQLenPdf::7                      69                       # What read queue length does an incoming req see
system.mem_ctrls.rdQLenPdf::8                       1                       # What read queue length does an incoming req see
system.mem_ctrls.rdQLenPdf::9                       0                       # What read queue length does an incoming req see
system.mem_ctrls.rdQLenPdf::10                      0                       # What read queue length does an incoming req see
system.mem_ctrls.rdQLenPdf::11                      0                       # What read queue length does an incoming req see
system.mem_ctrls.rdQLenPdf::12                      0                       # What read queue length does an incoming req see
system.mem_ctrls.rdQLenPdf::13                      0                       # What read queue length does an incoming req see
system.mem_ctrls.rdQLenPdf::14                      0                       # What read queue length does an incoming req see
system.mem_ctrls.rdQLenPdf::15                      0                       # What read queue length does an incoming req see
system.mem_ctrls.rdQLenPdf::16                      0                       # What read queue length does an incoming req see
system.mem_ctrls.rdQLenPdf::17                      0                       # What read queue length does an incoming req see
system.mem_ctrls.rdQLenPdf::18                      0                       # What read queue length does an incoming req see
system.mem_ctrls.rdQLenPdf::19                      0                       # What read queue length does an incoming req see
system.mem_ctrls.rdQLenPdf::20                      0                       # What read queue length does an incoming req see
system.mem_ctrls.rdQLenPdf::21                      0                       # What read queue length does an incoming req see
system.mem_ctrls.rdQLenPdf::22                      0                       # What read queue length does an incoming req see
system.mem_ctrls.rdQLenPdf::23                      0                       # What read queue length does an incoming req see
system.mem_ctrls.rdQLenPdf::24                      0                       # What read queue length does an incoming req see
system.mem_ctrls.rdQLenPdf::25                      0                       # What read queue length does an incoming req see
system.mem_ctrls.rdQLenPdf::26                      0                       # What read queue length does an incoming req see
system.mem_ctrls.rdQLenPdf::27                      0                       # What read queue length does an incoming req see
system.mem_ctrls.rdQLenPdf::28                      0                       # What read queue length does an incoming req see
system.mem_ctrls.rdQLenPdf::29                      0                       # What read queue length does an incoming req see
system.mem_ctrls.rdQLenPdf::30                      0                       # What read queue length does an incoming req see
system.mem_ctrls.rdQLenPdf::31                      0                       # What read queue length does an incoming req see
system.mem_ctrls.rdQLenPdf::32                      0                       # What read queue length does an incoming req see
system.mem_ctrls.rdQLenPdf::33                      0                       # What read queue length does an incoming req see
system.mem_ctrls.rdQLenPdf::34                      0                       # What read queue length does an incoming req see
system.mem_ctrls.rdQLenPdf::35                      0                       # What read queue length does an incoming req see
system.mem_ctrls.rdQLenPdf::36                      0                       # What read queue length does an incoming req see
system.mem_ctrls.rdQLenPdf::37                      0                       # What read queue length does an incoming req see
system.mem_ctrls.rdQLenPdf::38                      0                       # What read queue length does an incoming req see
system.mem_ctrls.rdQLenPdf::39                      0                       # What read queue length does an incoming req see
system.mem_ctrls.rdQLenPdf::40                      0                       # What read queue length does an incoming req see
system.mem_ctrls.rdQLenPdf::41                      0                       # What read queue length does an incoming req see
system.mem_ctrls.rdQLenPdf::42                      0                       # What read queue length does an incoming req see
system.mem_ctrls.rdQLenPdf::43                      0                       # What read queue length does an incoming req see
system.mem_ctrls.rdQLenPdf::44                      0                       # What read queue length does an incoming req see
system.mem_ctrls.rdQLenPdf::45                      0                       # What read queue length does an incoming req see
system.mem_ctrls.rdQLenPdf::46                      0                       # What read queue length does an incoming req see
system.mem_ctrls.rdQLenPdf::47                      0                       # What read queue length does an incoming req see
system.mem_ctrls.rdQLenPdf::48                      0                       # What read queue length does an incoming req see
system.mem_ctrls.rdQLenPdf::49                      0                       # What read queue length does an incoming req see
system.mem_ctrls.rdQLenPdf::50                      0                       # What read queue length does an incoming req see
system.mem_ctrls.rdQLenPdf::51                      0                       # What read queue length does an incoming req see
system.mem_ctrls.rdQLenPdf::52                      0                       # What read queue length does an incoming req see
system.mem_ctrls.rdQLenPdf::53                      0                       # What read queue length does an incoming req see
system.mem_ctrls.rdQLenPdf::54                      0                       # What read queue length does an incoming req see
system.mem_ctrls.rdQLenPdf::55                      0                       # What read queue length does an incoming req see
system.mem_ctrls.rdQLenPdf::56                      0                       # What read queue length does an incoming req see
system.mem_ctrls.rdQLenPdf::57                      0                       # What read queue length does an incoming req see
system.mem_ctrls.rdQLenPdf::58                      0                       # What read queue length does an incoming req see
system.mem_ctrls.rdQLenPdf::59                      0                       # What read queue length does an incoming req see
system.mem_ctrls.rdQLenPdf::60                      0                       # What read queue length does an incoming req see
system.mem_ctrls.rdQLenPdf::61                      0                       # What read queue length does an incoming req see
system.mem_ctrls.rdQLenPdf::62                      0                       # What read queue length does an incoming req see
system.mem_ctrls.rdQLenPdf::63                      0                       # What read queue length does an incoming req see
system.mem_ctrls.wrQLenPdf::0                       0                       # What write queue length does an incoming req see
system.mem_ctrls.wrQLenPdf::1                       0                       # What write queue length does an incoming req see
system.mem_ctrls.wrQLenPdf::2                       0                       # What write queue length does an incoming req see
system.mem_ctrls.wrQLenPdf::3                       0                       # What write queue length does an incoming req see
system.mem_ctrls.wrQLenPdf::4                       0                       # What write queue length does an incoming req see
system.mem_ctrls.wrQLenPdf::5                       0                       # What write queue length does an incoming req see
system.mem_ctrls.wrQLenPdf::6                       0                       # What write queue length does an incoming req see
system.mem_ctrls.wrQLenPdf::7                       0                       # What write queue length does an incoming req see
system.mem_ctrls.wrQLenPdf::8                       0                       # What write queue length does an incoming req see
system.mem_ctrls.wrQLenPdf::9                       0                       # What write queue length does an incoming req see
system.mem_ctrls.wrQLenPdf::10                      0                       # What write queue length does an incoming req see
system.mem_ctrls.wrQLenPdf::11                      0                       # What write queue length does an incoming req see
system.mem_ctrls.wrQLenPdf::12                      0                       # What write queue length does an incoming req see
system.mem_ctrls.wrQLenPdf::13                      0                       # What write queue length does an incoming req see
system.mem_ctrls.wrQLenPdf::14                      0                       # What write queue length does an incoming req see
system.mem_ctrls.wrQLenPdf::15                     25                       # What write queue length does an incoming req see
system.mem_ctrls.wrQLenPdf::16                     92                       # What write queue length does an incoming req see
system.mem_ctrls.wrQLenPdf::17                     68                       # What write queue length does an incoming req see
system.mem_ctrls.wrQLenPdf::18                     57                       # What write queue length does an incoming req see
system.mem_ctrls.wrQLenPdf::19                    104                       # What write queue length does an incoming req see
system.mem_ctrls.wrQLenPdf::20                     57                       # What write queue length does an incoming req see
[...]
system.cpu.icache.ReadReq_miss_rate::total     0.003146                       # miss rate for ReadReq accesses
system.cpu.icache.ReadReq_avg_miss_latency::.cpu.inst 43459.595960                       # average ReadReq miss latency
system.cpu.icache.ReadReq_avg_miss_latency::total 43459.595960                       # average ReadReq miss latency
system.cpu.icache.ReadReq_mshr_misses::.cpu.inst           99                       # number of ReadReq MSHR misses
system.cpu.icache.ReadReq_mshr_misses::total           99                       # number of ReadReq MSHR misses
system.cpu.icache.ReadReq_mshr_miss_latency::.cpu.inst      4147375                       # number of ReadReq MSHR miss cycles
system.cpu.icache.ReadReq_mshr_miss_latency::total      4147375                       # number of ReadReq MSHR miss cycles
system.cpu.icache.ReadReq_mshr_miss_rate::.cpu.inst     0.003146                       # mshr miss rate for ReadReq accesses
system.cpu.icache.ReadReq_mshr_miss_rate::total     0.003146                       # mshr miss rate for ReadReq accesses
system.cpu.icache.ReadReq_avg_mshr_miss_latency::.cpu.inst 41892.676768                       # average ReadReq mshr miss latency
system.cpu.icache.ReadReq_avg_mshr_miss_latency::total 41892.676768                       # average ReadReq mshr miss latency
system.cpu.icache.tags.pwrStateResidencyTicks::UNDEFINED    963902500                       # Cumulative time (in ticks) in various power states
system.cpu.icache.tags.tagsinuse           119.787311                       # Cycle average of tags in use
system.cpu.icache.tags.total_refs              388367                       # Total number of references to valid blocks.
system.cpu.icache.tags.sampled_refs               152                       # Sample count of references to valid blocks.
system.cpu.icache.tags.avg_refs           2555.046053                       # Average number of references to valid blocks.
system.cpu.icache.tags.warmup_cycle                 0                       # Cycle when the warmup percentage was hit.
system.cpu.icache.tags.occ_blocks::.cpu.inst   119.787311                       # Average occupied blocks per requestor
system.cpu.icache.tags.occ_percent::.cpu.inst     0.233960                       # Average percentage of cache occupancy
system.cpu.icache.tags.occ_percent::total     0.233960                       # Average percentage of cache occupancy
system.cpu.icache.tags.occ_task_id_blocks::1024          152                       # Occupied blocks per task id
system.cpu.icache.tags.age_task_id_blocks_1024::1           99                       # Occupied blocks per task id
system.cpu.icache.tags.age_task_id_blocks_1024::2           53                       # Occupied blocks per task id
system.cpu.icache.tags.occ_task_id_percent::1024     0.296875                       # Percentage of cache occupancy per task id
system.cpu.icache.tags.tag_accesses             63039                       # Number of tag accesses
system.cpu.icache.tags.data_accesses            63039                       # Number of data accesses
system.cpu.dtb.walker.pwrStateResidencyTicks::UNDEFINED    963902500                       # Cumulative time (in ticks) in various power states
system.cpu.dtb.stage2_mmu.stage2_tlb.walker.pwrStateResidencyTicks::UNDEFINED    963902500                       # Cumulative time (in ticks) in various power states
system.cpu.dcache.pwrStateResidencyTicks::UNDEFINED    963902500                       # Cumulative time (in ticks) in various power states
system.cpu.dcache.demand_hits::.cpu.data         8279                       # number of demand (read+write) hits
system.cpu.dcache.demand_hits::total             8279                       # number of demand (read+write) hits
system.cpu.dcache.overall_hits::.cpu.data         8279                       # number of overall hits
system.cpu.dcache.overall_hits::total            8279                       # number of overall hits
system.cpu.dcache.demand_misses::.cpu.data           31                       # number of demand (read+write) misses
system.cpu.dcache.demand_misses::total             31                       # number of demand (read+write) misses
system.cpu.dcache.overall_misses::.cpu.data           31                       # number of overall misses
system.cpu.dcache.overall_misses::total            31                       # number of overall misses
system.cpu.dcache.demand_miss_latency::.cpu.data      2108500                       # number of demand (read+write) miss cycles
system.cpu.dcache.demand_miss_latency::total      2108500                       # number of demand (read+write) miss cycles
system.cpu.dcache.overall_miss_latency::.cpu.data      2108500                       # number of overall miss cycles
system.cpu.dcache.overall_miss_latency::total      2108500                       # number of overall miss cycles
system.cpu.dcache.demand_accesses::.cpu.data         8310                       # number of demand (read+write) accesses
system.cpu.dcache.demand_accesses::total         8310                       # number of demand (read+write) accesses
system.cpu.dcache.overall_accesses::.cpu.data         8310                       # number of overall (read+write) accesses
system.cpu.dcache.overall_accesses::total         8310                       # number of overall (read+write) accesses
system.cpu.dcache.demand_miss_rate::.cpu.data     0.003730                       # miss rate for demand accesses
system.cpu.dcache.demand_miss_rate::total     0.003730                       # miss rate for demand accesses
system.cpu.dcache.overall_miss_rate::.cpu.data     0.003730                       # miss rate for overall accesses
system.cpu.dcache.overall_miss_rate::total     0.003730                       # miss rate for overall accesses
system.cpu.dcache.demand_avg_miss_latency::.cpu.data 68016.129032                       # average overall miss latency
system.cpu.dcache.demand_avg_miss_latency::total 68016.129032                       # average overall miss latency
system.cpu.dcache.overall_avg_miss_latency::.cpu.data 68016.129032                       # average overall miss latency
system.cpu.dcache.overall_avg_miss_latency::total 68016.129032                       # average overall miss latency
system.cpu.dcache.blocked_cycles::no_mshrs            0                       # number of cycles access was blocked
system.cpu.dcache.blocked_cycles::no_targets            0                       # number of cycles access was blocked
system.cpu.dcache.blocked::no_mshrs                 0                       # number of cycles access was blocked
system.cpu.dcache.blocked::no_targets               0                       # number of cycles access was blocked
system.cpu.dcache.avg_blocked_cycles::no_mshrs          nan                       # average number of cycles each access was blocked
system.cpu.dcache.avg_blocked_cycles::no_targets          nan                       # average number of cycles each access was blocked
system.cpu.dcache.writebacks::.writebacks           12                       # number of writebacks
system.cpu.dcache.writebacks::total                12                       # number of writebacks
system.cpu.dcache.demand_mshr_hits::.cpu.data            5                       # number of demand (read+write) MSHR hits
system.cpu.dcache.demand_mshr_hits::total            5                       # number of demand (read+write) MSHR hits
system.cpu.dcache.overall_mshr_hits::.cpu.data            5                       # number of overall MSHR hits
system.cpu.dcache.overall_mshr_hits::total            5                       # number of overall MSHR hits
system.cpu.dcache.demand_mshr_misses::.cpu.data           26                       # number of demand (read+write) MSHR misses
system.cpu.dcache.demand_mshr_misses::total           26                       # number of demand (read+write) MSHR misses
system.cpu.dcache.overall_mshr_misses::.cpu.data           26                       # number of overall MSHR misses
system.cpu.dcache.overall_mshr_misses::total           26                       # number of overall MSHR misses
system.cpu.dcache.overall_mshr_uncacheable_misses::.cpu.data           39                       # number of overall MSHR uncacheable misses
system.cpu.dcache.overall_mshr_uncacheable_misses::total           39                       # number of overall MSHR uncacheable misses
system.cpu.dcache.demand_mshr_miss_latency::.cpu.data      1748500                       # number of demand (read+write) MSHR miss cycles
system.cpu.dcache.demand_mshr_miss_latency::total      1748500                       # number of demand (read+write) MSHR miss cycles
system.cpu.dcache.overall_mshr_miss_latency::.cpu.data      1748500                       # number of overall MSHR miss cycles
system.cpu.dcache.overall_mshr_miss_latency::total      1748500                       # number of overall MSHR miss cycles
system.cpu.dcache.overall_mshr_uncacheable_latency::.cpu.data        86625                       # number of overall MSHR uncacheable cycles
system.cpu.dcache.overall_mshr_uncacheable_latency::total        86625                       # number of overall MSHR uncacheable cycles
system.cpu.dcache.demand_mshr_miss_rate::.cpu.data     0.003129                       # mshr miss rate for demand accesses
system.cpu.dcache.demand_mshr_miss_rate::total     0.003129                       # mshr miss rate for demand accesses
system.cpu.dcache.overall_mshr_miss_rate::.cpu.data     0.003129                       # mshr miss rate for overall accesses
system.cpu.dcache.overall_mshr_miss_rate::total     0.003129                       # mshr miss rate for overall accesses
system.cpu.dcache.demand_avg_mshr_miss_latency::.cpu.data        67250                       # average overall mshr miss latency
system.cpu.dcache.demand_avg_mshr_miss_latency::total        67250                       # average overall mshr miss latency
system.cpu.dcache.overall_avg_mshr_miss_latency::.cpu.data        67250                       # average overall mshr miss latency
system.cpu.dcache.overall_avg_mshr_miss_latency::total        67250                       # average overall mshr miss latency
system.cpu.dcache.overall_avg_mshr_uncacheable_latency::.cpu.data  2221.153846                       # average overall mshr uncacheable latency
system.cpu.dcache.overall_avg_mshr_uncacheable_latency::total  2221.153846                       # average overall mshr uncacheable latency
system.cpu.dcache.replacements                     26                       # number of replacements
system.cpu.dcache.ReadReq_hits::.cpu.data         8103                       # number of ReadReq hits
system.cpu.dcache.ReadReq_hits::total            8103                       # number of ReadReq hits
system.cpu.dcache.ReadReq_misses::.cpu.data           19                       # number of ReadReq misses
system.cpu.dcache.ReadReq_misses::total            19                       # number of ReadReq misses
system.cpu.dcache.ReadReq_miss_latency::.cpu.data      1201875                       # number of ReadReq miss cycles
system.cpu.dcache.ReadReq_miss_latency::total      1201875                       # number of ReadReq miss cycles
system.cpu.dcache.ReadReq_accesses::.cpu.data         8122                       # number of ReadReq accesses(hits+misses)
system.cpu.dcache.ReadReq_accesses::total         8122                       # number of ReadReq accesses(hits+misses)
system.cpu.dcache.ReadReq_miss_rate::.cpu.data     0.002339                       # miss rate for ReadReq accesses
system.cpu.dcache.ReadReq_miss_rate::total     0.002339                       # miss rate for ReadReq accesses
system.cpu.dcache.ReadReq_avg_miss_latency::.cpu.data 63256.578947                       # average ReadReq miss latency
system.cpu.dcache.ReadReq_avg_miss_latency::total 63256.578947                       # average ReadReq miss latency
system.cpu.dcache.ReadReq_mshr_misses::.cpu.data           19                       # number of ReadReq MSHR misses
system.cpu.dcache.ReadReq_mshr_misses::total           19                       # number of ReadReq MSHR misses
system.cpu.dcache.ReadReq_mshr_uncacheable::.cpu.data            4                       # number of ReadReq MSHR uncacheable
system.cpu.dcache.ReadReq_mshr_uncacheable::total            4                       # number of ReadReq MSHR uncacheable
system.cpu.dcache.ReadReq_mshr_miss_latency::.cpu.data      1175125                       # number of ReadReq MSHR miss cycles
system.cpu.dcache.ReadReq_mshr_miss_latency::total      1175125                       # number of ReadReq MSHR miss cycles
system.cpu.dcache.ReadReq_mshr_uncacheable_latency::.cpu.data        86625                       # number of ReadReq MSHR uncacheable cycles
system.cpu.dcache.ReadReq_mshr_uncacheable_latency::total        86625                       # number of ReadReq MSHR uncacheable cycles
system.cpu.dcache.ReadReq_mshr_miss_rate::.cpu.data     0.002339                       # mshr miss rate for ReadReq accesses
system.cpu.dcache.ReadReq_mshr_miss_rate::total     0.002339                       # mshr miss rate for ReadReq accesses
system.cpu.dcache.ReadReq_avg_mshr_miss_latency::.cpu.data 61848.684211                       # average ReadReq mshr miss latency
system.cpu.dcache.ReadReq_avg_mshr_miss_latency::total 61848.684211                       # average ReadReq mshr miss latency
system.cpu.dcache.ReadReq_avg_mshr_uncacheable_latency::.cpu.data 21656.250000                       # average ReadReq mshr uncacheable latency
system.cpu.dcache.ReadReq_avg_mshr_uncacheable_latency::total 21656.250000                       # average ReadReq mshr uncacheable latency
system.cpu.dcache.WriteReq_hits::.cpu.data          176                       # number of WriteReq hits
system.cpu.dcache.WriteReq_hits::total            176                       # number of WriteReq hits
system.cpu.dcache.WriteReq_misses::.cpu.data           12                       # number of WriteReq misses
system.cpu.dcache.WriteReq_misses::total           12                       # number of WriteReq misses
system.cpu.dcache.WriteReq_miss_latency::.cpu.data       906625                       # number of WriteReq miss cycles
system.cpu.dcache.WriteReq_miss_latency::total       906625                       # number of WriteReq miss cycles
system.cpu.dcache.WriteReq_accesses::.cpu.data          188                       # number of WriteReq accesses(hits+misses)
system.cpu.dcache.WriteReq_accesses::total          188                       # number of WriteReq accesses(hits+misses)
system.cpu.dcache.WriteReq_miss_rate::.cpu.data     0.063830                       # miss rate for WriteReq accesses
system.cpu.dcache.WriteReq_miss_rate::total     0.063830                       # miss rate for WriteReq accesses
system.cpu.dcache.WriteReq_avg_miss_latency::.cpu.data 75552.083333                       # average WriteReq miss latency
system.cpu.dcache.WriteReq_avg_miss_latency::total 75552.083333                       # average WriteReq miss latency
system.cpu.dcache.WriteReq_mshr_hits::.cpu.data            5                       # number of WriteReq MSHR hits
system.cpu.dcache.WriteReq_mshr_hits::total            5                       # number of WriteReq MSHR hits
system.cpu.dcache.WriteReq_mshr_misses::.cpu.data            7                       # number of WriteReq MSHR misses
system.cpu.dcache.WriteReq_mshr_misses::total            7                       # number of WriteReq MSHR misses
system.cpu.dcache.WriteReq_mshr_uncacheable::.cpu.data           35                       # number of WriteReq MSHR uncacheable
system.cpu.dcache.WriteReq_mshr_uncacheable::total           35                       # number of WriteReq MSHR uncacheable
system.cpu.dcache.WriteReq_mshr_miss_latency::.cpu.data       573375                       # number of WriteReq MSHR miss cycles
system.cpu.dcache.WriteReq_mshr_miss_latency::total       573375                       # number of WriteReq MSHR miss cycles
system.cpu.dcache.WriteReq_mshr_miss_rate::.cpu.data     0.037234                       # mshr miss rate for WriteReq accesses
system.cpu.dcache.WriteReq_mshr_miss_rate::total     0.037234                       # mshr miss rate for WriteReq accesses
system.cpu.dcache.WriteReq_avg_mshr_miss_latency::.cpu.data 81910.714286                       # average WriteReq mshr miss latency
system.cpu.dcache.WriteReq_avg_mshr_miss_latency::total 81910.714286                       # average WriteReq mshr miss latency
system.cpu.dcache.CleanInvalidReq_mshr_misses::.cpu.data         3072                       # number of CleanInvalidReq MSHR misses
system.cpu.dcache.CleanInvalidReq_mshr_misses::total         3072                       # number of CleanInvalidReq MSHR misses
system.cpu.dcache.CleanInvalidReq_mshr_miss_latency::.cpu.data     31943875                       # number of CleanInvalidReq MSHR miss cycles
system.cpu.dcache.CleanInvalidReq_mshr_miss_latency::total     31943875                       # number of CleanInvalidReq MSHR miss cycles
system.cpu.dcache.CleanInvalidReq_mshr_miss_rate::.cpu.data          inf                       # mshr miss rate for CleanInvalidReq accesses
system.cpu.dcache.CleanInvalidReq_mshr_miss_rate::total          inf                       # mshr miss rate for CleanInvalidReq accesses
system.cpu.dcache.CleanInvalidReq_avg_mshr_miss_latency::.cpu.data 10398.396810                       # average CleanInvalidReq mshr miss latency
system.cpu.dcache.CleanInvalidReq_avg_mshr_miss_latency::total 10398.396810                       # average CleanInvalidReq mshr miss latency
system.cpu.dcache.tags.pwrStateResidencyTicks::UNDEFINED    963902500                       # Cumulative time (in ticks) in various power states
system.cpu.dcache.tags.tagsinuse                  512                       # Cycle average of tags in use
system.cpu.dcache.tags.total_refs               16170                       # Total number of references to valid blocks.
system.cpu.dcache.tags.sampled_refs               538                       # Sample count of references to valid blocks.
system.cpu.dcache.tags.avg_refs             30.055762                       # Average number of references to valid blocks.
system.cpu.dcache.tags.warmup_cycle                 0                       # Cycle when the warmup percentage was hit.
system.cpu.dcache.tags.occ_blocks::.cpu.data          512                       # Average occupied blocks per requestor
system.cpu.dcache.tags.occ_percent::.cpu.data            1                       # Average percentage of cache occupancy
system.cpu.dcache.tags.occ_percent::total            1                       # Average percentage of cache occupancy
system.cpu.dcache.tags.occ_task_id_blocks::1024          512                       # Occupied blocks per task id
system.cpu.dcache.tags.age_task_id_blocks_1024::0            1                       # Occupied blocks per task id
system.cpu.dcache.tags.age_task_id_blocks_1024::1          335                       # Occupied blocks per task id
system.cpu.dcache.tags.age_task_id_blocks_1024::2          176                       # Occupied blocks per task id
system.cpu.dcache.tags.occ_task_id_percent::1024            1                       # Percentage of cache occupancy per task id
system.cpu.dcache.tags.tag_accesses             45554                       # Number of tag accesses
system.cpu.dcache.tags.data_accesses            45554                       # Number of data accesses
system.cpu.itb.walker.pwrStateResidencyTicks::UNDEFINED    963902500                       # Cumulative time (in ticks) in various power states
system.cpu.itb.stage2_mmu.stage2_tlb.walker.pwrStateResidencyTicks::UNDEFINED    963902500                       # Cumulative time (in ticks) in various power states

---------- End Simulation Statistics   ----------
