
---------- Begin Simulation Statistics ----------
final_tick                                10922619918                       # Number of ticks from beginning of simulation (restored from checkpoints and never reset)
host_inst_rate                                 107225                       # Simulator instruction rate (inst/s)
host_mem_usage                                4605684                       # Number of bytes of host memory used
host_op_rate                                   124373                       # Simulator op (including micro ops) rate (op/s)
host_seconds                                   116.05                       # Real time elapsed on the host
host_tick_rate                               94116214                       # Simulator tick rate (ticks/s)
sim_freq                                 1000000000000                       # Frequency of simulated ticks
sim_insts                                    12443948                       # Number of instructions simulated
sim_ops                                      14434002                       # Number of ops (including micro ops) simulated
sim_seconds                                  0.010923                       # Number of seconds simulated
sim_ticks                                 10922619918                       # Number of ticks simulated
system.cpu_cluster.cpus.branchPred.BTBCorrect            0                       # Number of correct BTB predictions (this stat may not work properly.
system.cpu_cluster.cpus.branchPred.BTBHitPct    94.812042                       # BTB Hit Percentage
system.cpu_cluster.cpus.branchPred.BTBHits      1362998                       # Number of BTB hits
system.cpu_cluster.cpus.branchPred.BTBLookups      1437579                       # Number of BTB lookups
system.cpu_cluster.cpus.branchPred.RASInCorrect            0                       # Number of incorrect RAS predictions.
system.cpu_cluster.cpus.branchPred.condIncorrect        50984                       # Number of conditional branches incorrect
system.cpu_cluster.cpus.branchPred.condPredicted      1837104                       # Number of conditional branches predicted
system.cpu_cluster.cpus.branchPred.indirectHits        31723                       # Number of indirect target hits.
system.cpu_cluster.cpus.branchPred.indirectLookups        33734                       # Number of indirect predictor lookups.
system.cpu_cluster.cpus.branchPred.indirectMisses         2011                       # Number of indirect misses.
system.cpu_cluster.cpus.branchPred.lookups      2925843                       # Number of BP lookups
system.cpu_cluster.cpus.branchPred.usedRAS       419872                       # Number of times the RAS was used to get a target.
system.cpu_cluster.cpus.branchPredindirectMispredicted         4118                       # Number of mispredicted indirect branches.
system.cpu_cluster.cpus.committedInsts       12443948                       # Number of instructions committed
system.cpu_cluster.cpus.committedOps         14434002                       # Number of ops (including micro ops) committed
system.cpu_cluster.cpus.cpi                  2.458671                       # CPI: cycles per instruction
system.cpu_cluster.cpus.discardedOps           148598                       # Number of ops (including micro ops) which were discarded before commit
system.cpu_cluster.cpus.dtb.accesses                0                       # DTB accesses
system.cpu_cluster.cpus.dtb.align_faults            0                       # Number of TLB faults due to alignment restrictions
system.cpu_cluster.cpus.dtb.domain_faults            0                       # Number of TLB faults due to domain restrictions
system.cpu_cluster.cpus.dtb.flush_entries            0                       # Number of entries that have been flushed from TLB
system.cpu_cluster.cpus.dtb.flush_tlb               0                       # Number of times complete TLB was flushed
system.cpu_cluster.cpus.dtb.flush_tlb_asid            0                       # Number of times TLB was flushed by ASID
system.cpu_cluster.cpus.dtb.flush_tlb_mva            0                       # Number of times TLB was flushed by MVA
system.cpu_cluster.cpus.dtb.flush_tlb_mva_asid            0                       # Number of times TLB was flushed by MVA & ASID
system.cpu_cluster.cpus.dtb.hits                    0                       # DTB hits
system.cpu_cluster.cpus.dtb.inst_accesses            0                       # ITB inst accesses
system.cpu_cluster.cpus.dtb.inst_hits               0                       # ITB inst hits
system.cpu_cluster.cpus.dtb.inst_misses             0                       # ITB inst misses
system.cpu_cluster.cpus.dtb.misses                  0                       # DTB misses
system.cpu_cluster.cpus.dtb.perms_faults            0                       # Number of TLB faults due to permissions restrictions
system.cpu_cluster.cpus.dtb.prefetch_faults            0                       # Number of TLB faults due to prefetch
system.cpu_cluster.cpus.dtb.read_accesses            0                       # DTB read accesses
system.cpu_cluster.cpus.dtb.read_hits               0                       # DTB read hits
system.cpu_cluster.cpus.dtb.read_misses             0                       # DTB read misses
system.cpu_cluster.cpus.dtb.stage2_mmu.stage2_tlb.accesses            0                       # DTB accesses
system.cpu_cluster.cpus.dtb.stage2_mmu.stage2_tlb.align_faults            0                       # Number of TLB faults due to alignment restrictions
system.cpu_cluster.cpus.dtb.stage2_mmu.stage2_tlb.domain_faults            0                       # Number of TLB faults due to domain restrictions
system.cpu_cluster.cpus.dtb.stage2_mmu.stage2_tlb.flush_entries            0                       # Number of entries that have been flushed from TLB
system.cpu_cluster.cpus.dtb.stage2_mmu.stage2_tlb.flush_tlb            0                       # Number of times complete TLB was flushed
system.cpu_cluster.cpus.dtb.stage2_mmu.stage2_tlb.flush_tlb_asid            0                       # Number of times TLB was flushed by ASID
system.cpu_cluster.cpus.dtb.stage2_mmu.stage2_tlb.flush_tlb_mva            0                       # Number of times TLB was flushed by MVA
system.cpu_cluster.cpus.dtb.stage2_mmu.stage2_tlb.flush_tlb_mva_asid            0                       # Number of times TLB was flushed by MVA & ASID
system.cpu_cluster.cpus.dtb.stage2_mmu.stage2_tlb.hits            0                       # DTB hits
system.cpu_cluster.cpus.dtb.stage2_mmu.stage2_tlb.inst_accesses            0                       # ITB inst accesses
system.cpu_cluster.cpus.dtb.stage2_mmu.stage2_tlb.inst_hits            0                       # ITB inst hits
system.cpu_cluster.cpus.dtb.stage2_mmu.stage2_tlb.inst_misses            0                       # ITB inst misses
system.cpu_cluster.cpus.dtb.stage2_mmu.stage2_tlb.misses            0                       # DTB misses
system.cpu_cluster.cpus.dtb.stage2_mmu.stage2_tlb.perms_faults            0                       # Number of TLB faults due to permissions restrictions
system.cpu_cluster.cpus.dtb.stage2_mmu.stage2_tlb.prefetch_faults            0                       # Number of TLB faults due to prefetch
system.cpu_cluster.cpus.dtb.stage2_mmu.stage2_tlb.read_accesses            0                       # DTB read accesses
system.cpu_cluster.cpus.dtb.stage2_mmu.stage2_tlb.read_hits            0                       # DTB read hits
system.cpu_cluster.cpus.dtb.stage2_mmu.stage2_tlb.read_misses            0                       # DTB read misses
system.cpu_cluster.cpus.dtb.stage2_mmu.stage2_tlb.walker.walkRequestOrigin_Requested::Data            0                       # Table walker requests started/completed, data/inst
system.cpu_cluster.cpus.dtb.stage2_mmu.stage2_tlb.walker.walkRequestOrigin_Requested::Inst            0                       # Table walker requests started/completed, data/inst
system.cpu_cluster.cpus.dtb.stage2_mmu.stage2_tlb.walker.walkRequestOrigin_Requested::total            0                       # Table walker requests started/completed, data/inst
system.cpu_cluster.cpus.dtb.stage2_mmu.stage2_tlb.walker.walkRequestOrigin_Completed::Data            0                       # Table walker requests started/completed, data/inst
system.cpu_cluster.cpus.dtb.stage2_mmu.stage2_tlb.walker.walkRequestOrigin_Completed::Inst            0                       # Table walker requests started/completed, data/inst
system.cpu_cluster.cpus.dtb.stage2_mmu.stage2_tlb.walker.walkRequestOrigin_Completed::total            0                       # Table walker requests started/completed, data/inst
system.cpu_cluster.cpus.dtb.stage2_mmu.stage2_tlb.walker.walkRequestOrigin::total            0                       # Table walker requests started/completed, data/inst
system.cpu_cluster.cpus.dtb.stage2_mmu.stage2_tlb.walker.walks            0                       # Table walker walks requested
system.cpu_cluster.cpus.dtb.stage2_mmu.stage2_tlb.write_accesses            0                       # DTB write accesses
system.cpu_cluster.cpus.dtb.stage2_mmu.stage2_tlb.write_hits            0                       # DTB write hits
system.cpu_cluster.cpus.dtb.stage2_mmu.stage2_tlb.write_misses            0                       # DTB write misses
system.cpu_cluster.cpus.dtb.walker.walkRequestOrigin_Requested::Data            0                       # Table walker requests started/completed, data/inst
system.cpu_cluster.cpus.dtb.walker.walkRequestOrigin_Requested::Inst            0                       # Table walker requests started/completed, data/inst
system.cpu_cluster.cpus.dtb.walker.walkRequestOrigin_Requested::total            0                       # Table walker requests started/completed, data/inst
system.cpu_cluster.cpus.dtb.walker.walkRequestOrigin_Completed::Data            0                       # Table walker requests started/completed, data/inst
system.cpu_cluster.cpus.dtb.walker.walkRequestOrigin_Completed::Inst            0                       # Table walker requests started/completed, data/inst
system.cpu_cluster.cpus.dtb.walker.walkRequestOrigin_Completed::total            0                       # Table walker requests started/completed, data/inst
system.cpu_cluster.cpus.dtb.walker.walkRequestOrigin::total            0                       # Table walker requests started/completed, data/inst
system.cpu_cluster.cpus.dtb.walker.walks            0                       # Table walker walks requested
system.cpu_cluster.cpus.dtb.write_accesses            0                       # DTB write accesses
system.cpu_cluster.cpus.dtb.write_hits              0                       # DTB write hits
system.cpu_cluster.cpus.dtb.write_misses            0                       # DTB write misses
system.cpu_cluster.cpus.fetch2.amo_instructions          610                       # Number of memory atomic instructions successfully decoded
system.cpu_cluster.cpus.fetch2.fp_instructions            0                       # Number of floating point instructions successfully decoded
system.cpu_cluster.cpus.fetch2.int_instructions      5834484                       # Number of integer instructions successfully decoded
system.cpu_cluster.cpus.fetch2.load_instructions      2601482                       # Number of memory load instructions successfully decoded
system.cpu_cluster.cpus.fetch2.store_instructions      1301832                       # Number of memory store instructions successfully decoded
system.cpu_cluster.cpus.fetch2.vec_instructions       152483                       # Number of SIMD instructions successfully decoded
system.cpu_cluster.cpus.idleCycles           13331879                       # Total number of cycles that the object has spent stopped
system.cpu_cluster.cpus.ipc                  0.406724                       # IPC: instructions per cycle
system.cpu_cluster.cpus.itb.accesses                0                       # DTB accesses
system.cpu_cluster.cpus.itb.align_faults            0                       # Number of TLB faults due to alignment restrictions
system.cpu_cluster.cpus.itb.domain_faults            0                       # Number of TLB faults due to domain restrictions
system.cpu_cluster.cpus.itb.flush_entries            0                       # Number of entries that have been flushed from TLB
system.cpu_cluster.cpus.itb.flush_tlb               0                       # Number of times complete TLB was flushed
system.cpu_cluster.cpus.itb.flush_tlb_asid            0                       # Number of times TLB was flushed by ASID
system.cpu_cluster.cpus.itb.flush_tlb_mva            0                       # Number of times TLB was flushed by MVA
system.cpu_cluster.cpus.itb.flush_tlb_mva_asid            0                       # Number of times TLB was flushed by MVA & ASID
system.cpu_cluster.cpus.itb.hits                    0                       # DTB hits
system.cpu_cluster.cpus.itb.inst_accesses            0                       # ITB inst accesses
system.cpu_cluster.cpus.itb.inst_hits               0                       # ITB inst hits
system.cpu_cluster.cpus.itb.inst_misses             0                       # ITB inst misses
system.cpu_cluster.cpus.itb.misses                  0                       # DTB misses
system.cpu_cluster.cpus.itb.perms_faults            0                       # Number of TLB faults due to permissions restrictions
system.cpu_cluster.cpus.itb.prefetch_faults            0                       # Number of TLB faults due to prefetch
system.cpu_cluster.cpus.itb.read_accesses            0                       # DTB read accesses
system.cpu_cluster.cpus.itb.read_hits               0                       # DTB read hits
system.cpu_cluster.cpus.itb.read_misses             0                       # DTB read misses
system.cpu_cluster.cpus.itb.stage2_mmu.stage2_tlb.accesses            0                       # DTB accesses
system.cpu_cluster.cpus.itb.stage2_mmu.stage2_tlb.align_faults            0                       # Number of TLB faults due to alignment restrictions
system.cpu_cluster.cpus.itb.stage2_mmu.stage2_tlb.domain_faults            0                       # Number of TLB faults due to domain restrictions
system.cpu_cluster.cpus.itb.stage2_mmu.stage2_tlb.flush_entries            0                       # Number of entries that have been flushed from TLB
system.cpu_cluster.cpus.itb.stage2_mmu.stage2_tlb.flush_tlb            0                       # Number of times complete TLB was flushed
system.cpu_cluster.cpus.itb.stage2_mmu.stage2_tlb.flush_tlb_asid            0                       # Number of times TLB was flushed by ASID
system.cpu_cluster.cpus.itb.stage2_mmu.stage2_tlb.flush_tlb_mva            0                       # Number of times TLB was flushed by MVA
system.cpu_cluster.cpus.itb.stage2_mmu.stage2_tlb.flush_tlb_mva_asid            0                       # Number of times TLB was flushed by MVA & ASID
system.cpu_cluster.cpus.itb.stage2_mmu.stage2_tlb.hits            0                       # DTB hits
system.cpu_cluster.cpus.itb.stage2_mmu.stage2_tlb.inst_accesses            0                       # ITB inst accesses
system.cpu_cluster.cpus.itb.stage2_mmu.stage2_tlb.inst_hits            0                       # ITB inst hits
system.cpu_cluster.cpus.itb.stage2_mmu.stage2_tlb.inst_misses            0                       # ITB inst misses
system.cpu_cluster.cpus.itb.stage2_mmu.stage2_tlb.misses            0                       # DTB misses
system.cpu_cluster.cpus.itb.stage2_mmu.stage2_tlb.perms_faults            0                       # Number of TLB faults due to permissions restrictions
system.cpu_cluster.cpus.itb.stage2_mmu.stage2_tlb.prefetch_faults            0                       # Number of TLB faults due to prefetch
system.cpu_cluster.cpus.itb.stage2_mmu.stage2_tlb.read_accesses            0                       # DTB read accesses
system.cpu_cluster.cpus.itb.stage2_mmu.stage2_tlb.read_hits            0                       # DTB read hits
system.cpu_cluster.cpus.itb.stage2_mmu.stage2_tlb.read_misses            0                       # DTB read misses
system.cpu_cluster.cpus.itb.stage2_mmu.stage2_tlb.walker.walkRequestOrigin_Requested::Data            0                       # Table walker requests started/completed, data/inst
system.cpu_cluster.cpus.itb.stage2_mmu.stage2_tlb.walker.walkRequestOrigin_Requested::Inst            0                       # Table walker requests started/completed, data/inst
system.cpu_cluster.cpus.itb.stage2_mmu.stage2_tlb.walker.walkRequestOrigin_Requested::total            0                       # Table walker requests started/completed, data/inst
system.cpu_cluster.cpus.itb.stage2_mmu.stage2_tlb.walker.walkRequestOrigin_Completed::Data            0                       # Table walker requests started/completed, data/inst
system.cpu_cluster.cpus.itb.stage2_mmu.stage2_tlb.walker.walkRequestOrigin_Completed::Inst            0                       # Table walker requests started/completed, data/inst
system.cpu_cluster.cpus.itb.stage2_mmu.stage2_tlb.walker.walkRequestOrigin_Completed::total            0                       # Table walker requests started/completed, data/inst
system.cpu_cluster.cpus.itb.stage2_mmu.stage2_tlb.walker.walkRequestOrigin::total            0                       # Table walker requests started/completed, data/inst
system.cpu_cluster.cpus.itb.stage2_mmu.stage2_tlb.walker.walks            0                       # Table walker walks requested
system.cpu_cluster.cpus.itb.stage2_mmu.stage2_tlb.write_accesses            0                       # DTB write accesses
system.cpu_cluster.cpus.itb.stage2_mmu.stage2_tlb.write_hits            0                       # DTB write hits
system.cpu_cluster.cpus.itb.stage2_mmu.stage2_tlb.write_misses            0                       # DTB write misses
system.cpu_cluster.cpus.itb.walker.walkRequestOrigin_Requested::Data            0                       # Table walker requests started/completed, data/inst
system.cpu_cluster.cpus.itb.walker.walkRequestOrigin_Requested::Inst            0                       # Table walker requests started/completed, data/inst
system.cpu_cluster.cpus.itb.walker.walkRequestOrigin_Requested::total            0                       # Table walker requests started/completed, data/inst
system.cpu_cluster.cpus.itb.walker.walkRequestOrigin_Completed::Data            0                       # Table walker requests started/completed, data/inst
system.cpu_cluster.cpus.itb.walker.walkRequestOrigin_Completed::Inst            0                       # Table walker requests started/completed, data/inst
system.cpu_cluster.cpus.itb.walker.walkRequestOrigin_Completed::total            0                       # Table walker requests started/completed, data/inst
system.cpu_cluster.cpus.itb.walker.walkRequestOrigin::total            0                       # Table walker requests started/completed, data/inst
system.cpu_cluster.cpus.itb.walker.walks            0                       # Table walker walks requested
system.cpu_cluster.cpus.itb.write_accesses            0                       # DTB write accesses
system.cpu_cluster.cpus.itb.write_hits              0                       # DTB write hits
system.cpu_cluster.cpus.itb.write_misses            0                       # DTB write misses
system.cpu_cluster.cpus.numCycles            30595574                       # number of cpu cycles simulated
system.cpu_cluster.cpus.numFetchSuspends            0                       # Number of times Execute suspended instruction fetching
system.cpu_cluster.cpus.numWorkItemsCompleted            0                       # number of work items this cpu completed
system.cpu_cluster.cpus.numWorkItemsStarted            0                       # number of work items this cpu started
system.cpu_cluster.cpus.op_class_0::No_OpClass        24681      0.17%      0.17% # Class of committed instruction
system.cpu_cluster.cpus.op_class_0::IntAlu      8559537     59.30%     59.47% # Class of committed instruction
system.cpu_cluster.cpus.op_class_0::IntMult         9097      0.06%     59.54% # Class of committed instruction
system.cpu_cluster.cpus.op_class_0::IntDiv           33      0.00%     59.54% # Class of committed instruction
system.cpu_cluster.cpus.op_class_0::FloatAdd         1800      0.01%     59.55% # Class of committed instruction
system.cpu_cluster.cpus.op_class_0::FloatCmp           12      0.00%     59.55% # Class of committed instruction
system.cpu_cluster.cpus.op_class_0::FloatCvt         1801      0.01%     59.56% # Class of committed instruction
system.cpu_cluster.cpus.op_class_0::FloatMult            0      0.00%     59.56% # Class of committed instruction
system.cpu_cluster.cpus.op_class_0::FloatMultAcc            0      0.00%     59.56% # Class of committed instruction
system.cpu_cluster.cpus.op_class_0::FloatDiv         1803      0.01%     59.57% # Class of committed instruction
system.cpu_cluster.cpus.op_class_0::FloatMisc        11441      0.08%     59.65% # Class of committed instruction
system.cpu_cluster.cpus.op_class_0::FloatSqrt            0      0.00%     59.65% # Class of committed instruction
system.cpu_cluster.cpus.op_class_0::SimdAdd         9048      0.06%     59.71% # Class of committed instruction
system.cpu_cluster.cpus.op_class_0::SimdAddAcc            0      0.00%     59.71% # Class of committed instruction
system.cpu_cluster.cpus.op_class_0::SimdAlu         9106      0.06%     59.78% # Class of committed instruction
system.cpu_cluster.cpus.op_class_0::SimdCmp        11692      0.08%     59.86% # Class of committed instruction
system.cpu_cluster.cpus.op_class_0::SimdCvt            2      0.00%     59.86% # Class of committed instruction
system.cpu_cluster.cpus.op_class_0::SimdMisc        98564      0.68%     60.54% # Class of committed instruction
system.cpu_cluster.cpus.op_class_0::SimdMult            0      0.00%     60.54% # Class of committed instruction
system.cpu_cluster.cpus.op_class_0::SimdMultAcc            0      0.00%     60.54% # Class of committed instruction
system.cpu_cluster.cpus.op_class_0::SimdShift            2      0.00%     60.54% # Class of committed instruction
system.cpu_cluster.cpus.op_class_0::SimdShiftAcc            0      0.00%     60.54% # Class of committed instruction
system.cpu_cluster.cpus.op_class_0::SimdDiv            0      0.00%     60.54% # Class of committed instruction
system.cpu_cluster.cpus.op_class_0::SimdSqrt            0      0.00%     60.54% # Class of committed instruction
system.cpu_cluster.cpus.op_class_0::SimdFloatAdd            0      0.00%     60.54% # Class of committed instruction
system.cpu_cluster.cpus.op_class_0::SimdFloatAlu            0      0.00%     60.54% # Class of committed instruction
system.cpu_cluster.cpus.op_class_0::SimdFloatCmp            0      0.00%     60.54% # Class of committed instruction
system.cpu_cluster.cpus.op_class_0::SimdFloatCvt            0      0.00%     60.54% # Class of committed instruction
system.cpu_cluster.cpus.op_class_0::SimdFloatDiv            0      0.00%     60.54% # Class of committed instruction
system.cpu_cluster.cpus.op_class_0::SimdFloatMisc            0      0.00%     60.54% # Class of committed instruction
system.cpu_cluster.cpus.op_class_0::SimdFloatMult            0      0.00%     60.54% # Class of committed instruction
system.cpu_cluster.cpus.op_class_0::SimdFloatMultAcc            0      0.00%     60.54% # Class of committed instruction
system.cpu_cluster.cpus.op_class_0::SimdFloatSqrt            0      0.00%     60.54% # Class of committed instruction
system.cpu_cluster.cpus.op_class_0::SimdReduceAdd            0      0.00%     60.54% # Class of committed instruction
system.cpu_cluster.cpus.op_class_0::SimdReduceAlu            0      0.00%     60.54% # Class of committed instruction
system.cpu_cluster.cpus.op_class_0::SimdReduceCmp            0      0.00%     60.54% # Class of committed instruction
system.cpu_cluster.cpus.op_class_0::SimdFloatReduceAdd            0      0.00%     60.54% # Class of committed instruction
system.cpu_cluster.cpus.op_class_0::SimdFloatReduceCmp            0      0.00%     60.54% # Class of committed instruction
system.cpu_cluster.cpus.op_class_0::SimdAes            0      0.00%     60.54% # Class of committed instruction
system.cpu_cluster.cpus.op_class_0::SimdAesMix            0      0.00%     60.54% # Class of committed instruction
system.cpu_cluster.cpus.op_class_0::SimdSha1Hash            0      0.00%     60.54% # Class of committed instruction
system.cpu_cluster.cpus.op_class_0::SimdSha1Hash2            0      0.00%     60.54% # Class of committed instruction
system.cpu_cluster.cpus.op_class_0::SimdSha256Hash            0      0.00%     60.54% # Class of committed instruction
system.cpu_cluster.cpus.op_class_0::SimdSha256Hash2            0      0.00%     60.54% # Class of committed instruction
system.cpu_cluster.cpus.op_class_0::SimdShaSigma2            0      0.00%     60.54% # Class of committed instruction
system.cpu_cluster.cpus.op_class_0::SimdShaSigma3            0      0.00%     60.54% # Class of committed instruction
system.cpu_cluster.cpus.op_class_0::SimdPredAlu            0      0.00%     60.54% # Class of committed instruction
system.cpu_cluster.cpus.op_class_0::MemRead      3020670     20.93%     81.47% # Class of committed instruction
system.cpu_cluster.cpus.op_class_0::MemWrite      2674713     18.53%    100.00% # Class of committed instruction
system.cpu_cluster.cpus.op_class_0::FloatMemRead            0      0.00%    100.00% # Class of committed instruction
system.cpu_cluster.cpus.op_class_0::FloatMemWrite            0      0.00%    100.00% # Class of committed instruction
system.cpu_cluster.cpus.op_class_0::IprAccess            0      0.00%    100.00% # Class of committed instruction
system.cpu_cluster.cpus.op_class_0::InstPrefetch            0      0.00%    100.00% # Class of committed instruction
system.cpu_cluster.cpus.op_class_0::total     14434002                       # Class of committed instruction
system.cpu_cluster.cpus.tickCycles           17263695                       # Number of cycles that the object actually ticked
system.cpu_cluster.cpus.workload.numSyscalls         3769                       # Number of system calls
system.membus.snoop_filter.hit_multi_requests            2                       # Number of requests hitting in the snoop filter with multiple (>1) holders of the requested data.
system.membus.snoop_filter.hit_multi_snoops            0                       # Number of snoops hitting in the snoop filter with multiple (>1) holders of the requested data.
system.membus.snoop_filter.hit_single_requests        74004                       # Number of requests hitting in the snoop filter with a single holder of the requested data.
system.membus.snoop_filter.hit_single_snoops            0                       # Number of snoops hitting in the snoop filter with a single holder of the requested data.
system.membus.snoop_filter.tot_requests        149031                       # Total number of requests made to the snoop filter.
system.membus.snoop_filter.tot_snoops               0                       # Total number of snoops made to the snoop filter.
system.membus.pwrStateResidencyTicks::UNDEFINED  10922619918                       # Cumulative time (in ticks) in various power states
system.membus.trans_dist::ReadResp              71547                       # Transaction distribution
system.membus.trans_dist::WritebackDirty         5606                       # Transaction distribution
system.membus.trans_dist::CleanEvict            68397                       # Transaction distribution
system.membus.trans_dist::ReadExReq              3466                       # Transaction distribution
system.membus.trans_dist::ReadExResp             3466                       # Transaction distribution
system.membus.trans_dist::ReadCleanReq          65719                       # Transaction distribution
system.membus.trans_dist::ReadSharedReq          5829                       # Transaction distribution
system.membus.trans_dist::InvalidateReq            14                       # Transaction distribution
system.membus.pkt_count_system.cpu_cluster.cpus.icache.mem_side::system.mem_ctrls.port       196643                       # Packet count per connected master and slave (bytes)
system.membus.pkt_count_system.cpu_cluster.cpus.icache.mem_side::total       196643                       # Packet count per connected master and slave (bytes)
system.membus.pkt_count_system.cpu_cluster.cpus.dcache.mem_side::system.mem_ctrls.port        27401                       # Packet count per connected master and slave (bytes)
system.membus.pkt_count_system.cpu_cluster.cpus.dcache.mem_side::total        27401                       # Packet count per connected master and slave (bytes)
system.membus.pkt_count::total                 224044                       # Packet count per connected master and slave (bytes)
system.membus.pkt_size_system.cpu_cluster.cpus.icache.mem_side::system.mem_ctrls.port      4205952                       # Cumulative packet size per connected master and slave (bytes)
system.membus.pkt_size_system.cpu_cluster.cpus.icache.mem_side::total      4205952                       # Cumulative packet size per connected master and slave (bytes)
system.membus.pkt_size_system.cpu_cluster.cpus.dcache.mem_side::system.mem_ctrls.port       953664                       # Cumulative packet size per connected master and slave (bytes)
system.membus.pkt_size_system.cpu_cluster.cpus.dcache.mem_side::total       953664                       # Cumulative packet size per connected master and slave (bytes)
system.membus.pkt_size::total                 5159616                       # Cumulative packet size per connected master and slave (bytes)
system.membus.snoops                                0                       # Total snoops (count)
system.membus.snoopTraffic                          0                       # Total snoop traffic (bytes)
system.membus.snoop_fanout::samples             75028                       # Request fanout histogram
system.membus.snoop_fanout::mean             0.000040                       # Request fanout histogram
system.membus.snoop_fanout::stdev            0.006323                       # Request fanout histogram
system.membus.snoop_fanout::underflows              0      0.00%      0.00% # Request fanout histogram
system.membus.snoop_fanout::0                   75025    100.00%    100.00% # Request fanout histogram
system.membus.snoop_fanout::1                       3      0.00%    100.00% # Request fanout histogram
system.membus.snoop_fanout::2                       0      0.00%    100.00% # Request fanout histogram
system.membus.snoop_fanout::overflows               0      0.00%    100.00% # Request fanout histogram
system.membus.snoop_fanout::min_value               0                       # Request fanout histogram
system.membus.snoop_fanout::max_value               1                       # Request fanout histogram
system.membus.snoop_fanout::total               75028                       # Request fanout histogram
system.membus.reqLayer0.occupancy           233524874                       # Layer occupancy (ticks)
system.membus.reqLayer0.utilization               2.1                       # Layer utilization (%)
system.membus.badaddr_responder.pwrStateResidencyTicks::UNDEFINED  10922619918                       # Cumulative time (in ticks) in various power states
system.membus.respLayer1.occupancy          329435252                       # Layer occupancy (ticks)
system.membus.respLayer1.utilization              3.0                       # Layer utilization (%)
system.membus.respLayer2.occupancy           47060976                       # Layer occupancy (ticks)
system.membus.respLayer2.utilization              0.4                       # Layer utilization (%)
system.voltage_domain.voltage                       1                       # Voltage in Volts
system.clk_domain.clock                          1000                       # Clock period in ticks
system.cpu_cluster.voltage_domain.voltage            1                       # Voltage in Volts
system.cpu_cluster.clk_domain.clock               357                       # Clock period in ticks
system.cpu_cluster.cpus.pwrStateResidencyTicks::ON  10922619918                       # Cumulative time (in ticks) in various power states
system.cpu_cluster.cpus.icache.pwrStateResidencyTicks::UNDEFINED  10922619918                       # Cumulative time (in ticks) in various power states
system.cpu_cluster.cpus.icache.demand_hits::.cpu_cluster.cpus.inst      4690989                       # number of demand (read+write) hits
system.cpu_cluster.cpus.icache.demand_hits::total      4690989                       # number of demand (read+write) hits
system.cpu_cluster.cpus.icache.overall_hits::.cpu_cluster.cpus.inst      4690989                       # number of overall hits
system.cpu_cluster.cpus.icache.overall_hits::total      4690989                       # number of overall hits
system.cpu_cluster.cpus.icache.demand_misses::.cpu_cluster.cpus.inst        65719                       # number of demand (read+write) misses
system.cpu_cluster.cpus.icache.demand_misses::total        65719                       # number of demand (read+write) misses
system.cpu_cluster.cpus.icache.overall_misses::.cpu_cluster.cpus.inst        65719                       # number of overall misses
system.cpu_cluster.cpus.icache.overall_misses::total        65719                       # number of overall misses
system.cpu_cluster.cpus.icache.demand_miss_latency::.cpu_cluster.cpus.inst   4576345515                       # number of demand (read+write) miss cycles
system.cpu_cluster.cpus.icache.demand_miss_latency::total   4576345515                       # number of demand (read+write) miss cycles
system.cpu_cluster.cpus.icache.overall_miss_latency::.cpu_cluster.cpus.inst   4576345515                       # number of overall miss cycles
system.cpu_cluster.cpus.icache.overall_miss_latency::total   4576345515                       # number of overall miss cycles
system.cpu_cluster.cpus.icache.demand_accesses::.cpu_cluster.cpus.inst      4756708                       # number of demand (read+write) accesses
system.cpu_cluster.cpus.icache.demand_accesses::total      4756708                       # number of demand (read+write) accesses
system.cpu_cluster.cpus.icache.overall_accesses::.cpu_cluster.cpus.inst      4756708                       # number of overall (read+write) accesses
system.cpu_cluster.cpus.icache.overall_accesses::total      4756708                       # number of overall (read+write) accesses
system.cpu_cluster.cpus.icache.demand_miss_rate::.cpu_cluster.cpus.inst     0.013816                       # miss rate for demand accesses
system.cpu_cluster.cpus.icache.demand_miss_rate::total     0.013816                       # miss rate for demand accesses
system.cpu_cluster.cpus.icache.overall_miss_rate::.cpu_cluster.cpus.inst     0.013816                       # miss rate for overall accesses
system.cpu_cluster.cpus.icache.overall_miss_rate::total     0.013816                       # miss rate for overall accesses
system.cpu_cluster.cpus.icache.demand_avg_miss_latency::.cpu_cluster.cpus.inst 69635.044888                       # average overall miss latency
system.cpu_cluster.cpus.icache.demand_avg_miss_latency::total 69635.044888                       # average overall miss latency
system.cpu_cluster.cpus.icache.overall_avg_miss_latency::.cpu_cluster.cpus.inst 69635.044888                       # average overall miss latency
system.cpu_cluster.cpus.icache.overall_avg_miss_latency::total 69635.044888                       # average overall miss latency
system.cpu_cluster.cpus.icache.blocked_cycles::no_mshrs            0                       # number of cycles access was blocked
system.cpu_cluster.cpus.icache.blocked_cycles::no_targets            0                       # number of cycles access was blocked
system.cpu_cluster.cpus.icache.blocked::no_mshrs            0                       # number of cycles access was blocked
system.cpu_cluster.cpus.icache.blocked::no_targets            0                       # number of cycles access was blocked
system.cpu_cluster.cpus.icache.avg_blocked_cycles::no_mshrs          nan                       # average number of cycles each access was blocked
system.cpu_cluster.cpus.icache.avg_blocked_cycles::no_targets          nan                       # average number of cycles each access was blocked
system.cpu_cluster.cpus.icache.demand_mshr_misses::.cpu_cluster.cpus.inst        65719                       # number of demand (read+write) MSHR misses
system.cpu_cluster.cpus.icache.demand_mshr_misses::total        65719                       # number of demand (read+write) MSHR misses
system.cpu_cluster.cpus.icache.overall_mshr_misses::.cpu_cluster.cpus.inst        65719                       # number of overall MSHR misses
system.cpu_cluster.cpus.icache.overall_mshr_misses::total        65719                       # number of overall MSHR misses
system.cpu_cluster.cpus.icache.demand_mshr_miss_latency::.cpu_cluster.cpus.inst   4517601347                       # number of demand (read+write) MSHR miss cycles
system.cpu_cluster.cpus.icache.demand_mshr_miss_latency::total   4517601347                       # number of demand (read+write) MSHR miss cycles
system.cpu_cluster.cpus.icache.overall_mshr_miss_latency::.cpu_cluster.cpus.inst   4517601347                       # number of overall MSHR miss cycles
system.cpu_cluster.cpus.icache.overall_mshr_miss_latency::total   4517601347                       # number of overall MSHR miss cycles
system.cpu_cluster.cpus.icache.demand_mshr_miss_rate::.cpu_cluster.cpus.inst     0.013816                       # mshr miss rate for demand accesses
system.cpu_cluster.cpus.icache.demand_mshr_miss_rate::total     0.013816                       # mshr miss rate for demand accesses
system.cpu_cluster.cpus.icache.overall_mshr_miss_rate::.cpu_cluster.cpus.inst     0.013816                       # mshr miss rate for overall accesses
system.cpu_cluster.cpus.icache.overall_mshr_miss_rate::total     0.013816                       # mshr miss rate for overall accesses
system.cpu_cluster.cpus.icache.demand_avg_mshr_miss_latency::.cpu_cluster.cpus.inst 68741.176022                       # average overall mshr miss latency
system.cpu_cluster.cpus.icache.demand_avg_mshr_miss_latency::total 68741.176022                       # average overall mshr miss latency
system.cpu_cluster.cpus.icache.overall_avg_mshr_miss_latency::.cpu_cluster.cpus.inst 68741.176022                       # average overall mshr miss latency
system.cpu_cluster.cpus.icache.overall_avg_mshr_miss_latency::total 68741.176022                       # average overall mshr miss latency
system.cpu_cluster.cpus.icache.replacements        65206                       # number of replacements
system.cpu_cluster.cpus.icache.ReadReq_hits::.cpu_cluster.cpus.inst      4690989                       # number of ReadReq hits
system.cpu_cluster.cpus.icache.ReadReq_hits::total      4690989                       # number of ReadReq hits
system.cpu_cluster.cpus.icache.ReadReq_misses::.cpu_cluster.cpus.inst        65719                       # number of ReadReq misses
system.cpu_cluster.cpus.icache.ReadReq_misses::total        65719                       # number of ReadReq misses
system.cpu_cluster.cpus.icache.ReadReq_miss_latency::.cpu_cluster.cpus.inst   4576345515                       # number of ReadReq miss cycles
system.cpu_cluster.cpus.icache.ReadReq_miss_latency::total   4576345515                       # number of ReadReq miss cycles
system.cpu_cluster.cpus.icache.ReadReq_accesses::.cpu_cluster.cpus.inst      4756708                       # number of ReadReq accesses(hits+misses)
system.cpu_cluster.cpus.icache.ReadReq_accesses::total      4756708                       # number of ReadReq accesses(hits+misses)
system.cpu_cluster.cpus.icache.ReadReq_miss_rate::.cpu_cluster.cpus.inst     0.013816                       # miss rate for ReadReq accesses
system.cpu_cluster.cpus.icache.ReadReq_miss_rate::total     0.013816                       # miss rate for ReadReq accesses
system.cpu_cluster.cpus.icache.ReadReq_avg_miss_latency::.cpu_cluster.cpus.inst 69635.044888                       # average ReadReq miss latency
system.cpu_cluster.cpus.icache.ReadReq_avg_miss_latency::total 69635.044888                       # average ReadReq miss latency
system.cpu_cluster.cpus.icache.ReadReq_mshr_misses::.cpu_cluster.cpus.inst        65719                       # number of ReadReq MSHR misses
system.cpu_cluster.cpus.icache.ReadReq_mshr_misses::total        65719                       # number of ReadReq MSHR misses
system.cpu_cluster.cpus.icache.ReadReq_mshr_miss_latency::.cpu_cluster.cpus.inst   4517601347                       # number of ReadReq MSHR miss cycles
system.cpu_cluster.cpus.icache.ReadReq_mshr_miss_latency::total   4517601347                       # number of ReadReq MSHR miss cycles
system.cpu_cluster.cpus.icache.ReadReq_mshr_miss_rate::.cpu_cluster.cpus.inst     0.013816                       # mshr miss rate for ReadReq accesses
system.cpu_cluster.cpus.icache.ReadReq_mshr_miss_rate::total     0.013816                       # mshr miss rate for ReadReq accesses
system.cpu_cluster.cpus.icache.ReadReq_avg_mshr_miss_latency::.cpu_cluster.cpus.inst 68741.176022                       # average ReadReq mshr miss latency
system.cpu_cluster.cpus.icache.ReadReq_avg_mshr_miss_latency::total 68741.176022                       # average ReadReq mshr miss latency
system.cpu_cluster.cpus.icache.tags.pwrStateResidencyTicks::UNDEFINED  10922619918                       # Cumulative time (in ticks) in various power states
system.cpu_cluster.cpus.icache.tags.tagsinuse   507.656639                       # Cycle average of tags in use
system.cpu_cluster.cpus.icache.tags.total_refs      4756707                       # Total number of references to valid blocks.
system.cpu_cluster.cpus.icache.tags.sampled_refs        65718                       # Sample count of references to valid blocks.
system.cpu_cluster.cpus.icache.tags.avg_refs    72.380581                       # Average number of references to valid blocks.
system.cpu_cluster.cpus.icache.tags.warmup_cycle        92000                       # Cycle when the warmup percentage was hit.
system.cpu_cluster.cpus.icache.tags.occ_blocks::.cpu_cluster.cpus.inst   507.656639                       # Average occupied blocks per requestor
system.cpu_cluster.cpus.icache.tags.occ_percent::.cpu_cluster.cpus.inst     0.991517                       # Average percentage of cache occupancy
system.cpu_cluster.cpus.icache.tags.occ_percent::total     0.991517                       # Average percentage of cache occupancy
system.cpu_cluster.cpus.icache.tags.occ_task_id_blocks::1024          512                       # Occupied blocks per task id
system.cpu_cluster.cpus.icache.tags.age_task_id_blocks_1024::0           93                       # Occupied blocks per task id
system.cpu_cluster.cpus.icache.tags.age_task_id_blocks_1024::1          256                       # Occupied blocks per task id
system.cpu_cluster.cpus.icache.tags.age_task_id_blocks_1024::2            4                       # Occupied blocks per task id
system.cpu_cluster.cpus.icache.tags.age_task_id_blocks_1024::3           68                       # Occupied blocks per task id
system.cpu_cluster.cpus.icache.tags.age_task_id_blocks_1024::4           91                       # Occupied blocks per task id
system.cpu_cluster.cpus.icache.tags.occ_task_id_percent::1024            1                       # Percentage of cache occupancy per task id
system.cpu_cluster.cpus.icache.tags.tag_accesses      9579134                       # Number of tag accesses
system.cpu_cluster.cpus.icache.tags.data_accesses      9579134                       # Number of data accesses
system.cpu_cluster.cpus.dtb.walker.pwrStateResidencyTicks::UNDEFINED  10922619918                       # Cumulative time (in ticks) in various power states
system.cpu_cluster.cpus.dtb.stage2_mmu.stage2_tlb.walker.pwrStateResidencyTicks::UNDEFINED  10922619918                       # Cumulative time (in ticks) in various power states
system.cpu_cluster.cpus.dcache.pwrStateResidencyTicks::UNDEFINED  10922619918                       # Cumulative time (in ticks) in various power states
system.cpu_cluster.cpus.dcache.demand_hits::.cpu_cluster.cpus.data      5694053                       # number of demand (read+write) hits
system.cpu_cluster.cpus.dcache.demand_hits::total      5694053                       # number of demand (read+write) hits
system.cpu_cluster.cpus.dcache.overall_hits::.cpu_cluster.cpus.data      5694053                       # number of overall hits
system.cpu_cluster.cpus.dcache.overall_hits::total      5694053                       # number of overall hits
system.cpu_cluster.cpus.dcache.demand_misses::.cpu_cluster.cpus.data        11242                       # number of demand (read+write) misses
system.cpu_cluster.cpus.dcache.demand_misses::total        11242                       # number of demand (read+write) misses
system.cpu_cluster.cpus.dcache.overall_misses::.cpu_cluster.cpus.data        11242                       # number of overall misses
system.cpu_cluster.cpus.dcache.overall_misses::total        11242                       # number of overall misses
system.cpu_cluster.cpus.dcache.demand_miss_latency::.cpu_cluster.cpus.data    764812261                       # number of demand (read+write) miss cycles
system.cpu_cluster.cpus.dcache.demand_miss_latency::total    764812261                       # number of demand (read+write) miss cycles
system.cpu_cluster.cpus.dcache.overall_miss_latency::.cpu_cluster.cpus.data    764812261                       # number of overall miss cycles
system.cpu_cluster.cpus.dcache.overall_miss_latency::total    764812261                       # number of overall miss cycles
system.cpu_cluster.cpus.dcache.demand_accesses::.cpu_cluster.cpus.data      5705295                       # number of demand (read+write) accesses
system.cpu_cluster.cpus.dcache.demand_accesses::total      5705295                       # number of demand (read+write) accesses
system.cpu_cluster.cpus.dcache.overall_accesses::.cpu_cluster.cpus.data      5705295                       # number of overall (read+write) accesses
system.cpu_cluster.cpus.dcache.overall_accesses::total      5705295                       # number of overall (read+write) accesses
system.cpu_cluster.cpus.dcache.demand_miss_rate::.cpu_cluster.cpus.data     0.001970                       # miss rate for demand accesses
system.cpu_cluster.cpus.dcache.demand_miss_rate::total     0.001970                       # miss rate for demand accesses
system.cpu_cluster.cpus.dcache.overall_miss_rate::.cpu_cluster.cpus.data     0.001970                       # miss rate for overall accesses
system.cpu_cluster.cpus.dcache.overall_miss_rate::total     0.001970                       # miss rate for overall accesses
system.cpu_cluster.cpus.dcache.demand_avg_miss_latency::.cpu_cluster.cpus.data 68031.690180                       # average overall miss latency
system.cpu_cluster.cpus.dcache.demand_avg_miss_latency::total 68031.690180                       # average overall miss latency
system.cpu_cluster.cpus.dcache.overall_avg_miss_latency::.cpu_cluster.cpus.data 68031.690180                       # average overall miss latency
system.cpu_cluster.cpus.dcache.overall_avg_miss_latency::total 68031.690180                       # average overall miss latency
system.cpu_cluster.cpus.dcache.blocked_cycles::no_mshrs            0                       # number of cycles access was blocked
system.cpu_cluster.cpus.dcache.blocked_cycles::no_targets            0                       # number of cycles access was blocked
system.cpu_cluster.cpus.dcache.blocked::no_mshrs            0                       # number of cycles access was blocked
system.cpu_cluster.cpus.dcache.blocked::no_targets            0                       # number of cycles access was blocked
system.cpu_cluster.cpus.dcache.avg_blocked_cycles::no_mshrs          nan                       # average number of cycles each access was blocked
system.cpu_cluster.cpus.dcache.avg_blocked_cycles::no_targets          nan                       # average number of cycles each access was blocked
system.cpu_cluster.cpus.dcache.writebacks::.writebacks         5606                       # number of writebacks
system.cpu_cluster.cpus.dcache.writebacks::total         5606                       # number of writebacks
system.cpu_cluster.cpus.dcache.demand_mshr_hits::.cpu_cluster.cpus.data         1936                       # number of demand (read+write) MSHR hits
system.cpu_cluster.cpus.dcache.demand_mshr_hits::total         1936                       # number of demand (read+write) MSHR hits
system.cpu_cluster.cpus.dcache.overall_mshr_hits::.cpu_cluster.cpus.data         1936                       # number of overall MSHR hits
system.cpu_cluster.cpus.dcache.overall_mshr_hits::total         1936                       # number of overall MSHR hits
system.cpu_cluster.cpus.dcache.demand_mshr_misses::.cpu_cluster.cpus.data         9306                       # number of demand (read+write) MSHR misses
system.cpu_cluster.cpus.dcache.demand_mshr_misses::total         9306                       # number of demand (read+write) MSHR misses
system.cpu_cluster.cpus.dcache.overall_mshr_misses::.cpu_cluster.cpus.data         9306                       # number of overall MSHR misses
system.cpu_cluster.cpus.dcache.overall_mshr_misses::total         9306                       # number of overall MSHR misses
system.cpu_cluster.cpus.dcache.demand_mshr_miss_latency::.cpu_cluster.cpus.data    643852086                       # number of demand (read+write) MSHR miss cycles
system.cpu_cluster.cpus.dcache.demand_mshr_miss_latency::total    643852086                       # number of demand (read+write) MSHR miss cycles
system.cpu_cluster.cpus.dcache.overall_mshr_miss_latency::.cpu_cluster.cpus.data    643852086                       # number of overall MSHR miss cycles
system.cpu_cluster.cpus.dcache.overall_mshr_miss_latency::total    643852086                       # number of overall MSHR miss cycles
system.cpu_cluster.cpus.dcache.demand_mshr_miss_rate::.cpu_cluster.cpus.data     0.001631                       # mshr miss rate for demand accesses
system.cpu_cluster.cpus.dcache.demand_mshr_miss_rate::total     0.001631                       # mshr miss rate for demand accesses
system.cpu_cluster.cpus.dcache.overall_mshr_miss_rate::.cpu_cluster.cpus.data     0.001631                       # mshr miss rate for overall accesses
system.cpu_cluster.cpus.dcache.overall_mshr_miss_rate::total     0.001631                       # mshr miss rate for overall accesses
system.cpu_cluster.cpus.dcache.demand_avg_mshr_miss_latency::.cpu_cluster.cpus.data 69186.770471                       # average overall mshr miss latency
system.cpu_cluster.cpus.dcache.demand_avg_mshr_miss_latency::total 69186.770471                       # average overall mshr miss latency
system.cpu_cluster.cpus.dcache.overall_avg_mshr_miss_latency::.cpu_cluster.cpus.data 69186.770471                       # average overall mshr miss latency
system.cpu_cluster.cpus.dcache.overall_avg_mshr_miss_latency::total 69186.770471                       # average overall mshr miss latency
system.cpu_cluster.cpus.dcache.replacements         8797                       # number of replacements
system.cpu_cluster.cpus.dcache.ReadReq_hits::.cpu_cluster.cpus.data      3022958                       # number of ReadReq hits
system.cpu_cluster.cpus.dcache.ReadReq_hits::total      3022958                       # number of ReadReq hits
system.cpu_cluster.cpus.dcache.ReadReq_misses::.cpu_cluster.cpus.data         5867                       # number of ReadReq misses
system.cpu_cluster.cpus.dcache.ReadReq_misses::total         5867                       # number of ReadReq misses
system.cpu_cluster.cpus.dcache.ReadReq_miss_latency::.cpu_cluster.cpus.data    398711157                       # number of ReadReq miss cycles
system.cpu_cluster.cpus.dcache.ReadReq_miss_latency::total    398711157                       # number of ReadReq miss cycles
system.cpu_cluster.cpus.dcache.ReadReq_accesses::.cpu_cluster.cpus.data      3028825                       # number of ReadReq accesses(hits+misses)
system.cpu_cluster.cpus.dcache.ReadReq_accesses::total      3028825                       # number of ReadReq accesses(hits+misses)
system.cpu_cluster.cpus.dcache.ReadReq_miss_rate::.cpu_cluster.cpus.data     0.001937                       # miss rate for ReadReq accesses
system.cpu_cluster.cpus.dcache.ReadReq_miss_rate::total     0.001937                       # miss rate for ReadReq accesses
system.cpu_cluster.cpus.dcache.ReadReq_avg_miss_latency::.cpu_cluster.cpus.data 67958.267769                       # average ReadReq miss latency
system.cpu_cluster.cpus.dcache.ReadReq_avg_miss_latency::total 67958.267769                       # average ReadReq miss latency
system.cpu_cluster.cpus.dcache.ReadReq_mshr_hits::.cpu_cluster.cpus.data           39                       # number of ReadReq MSHR hits
system.cpu_cluster.cpus.dcache.ReadReq_mshr_hits::total           39                       # number of ReadReq MSHR hits
system.cpu_cluster.cpus.dcache.ReadReq_mshr_misses::.cpu_cluster.cpus.data         5828                       # number of ReadReq MSHR misses
system.cpu_cluster.cpus.dcache.ReadReq_mshr_misses::total         5828                       # number of ReadReq MSHR misses
system.cpu_cluster.cpus.dcache.ReadReq_mshr_miss_latency::.cpu_cluster.cpus.data    391049042                       # number of ReadReq MSHR miss cycles
system.cpu_cluster.cpus.dcache.ReadReq_mshr_miss_latency::total    391049042                       # number of ReadReq MSHR miss cycles
system.cpu_cluster.cpus.dcache.ReadReq_mshr_miss_rate::.cpu_cluster.cpus.data     0.001924                       # mshr miss rate for ReadReq accesses
system.cpu_cluster.cpus.dcache.ReadReq_mshr_miss_rate::total     0.001924                       # mshr miss rate for ReadReq accesses
system.cpu_cluster.cpus.dcache.ReadReq_avg_mshr_miss_latency::.cpu_cluster.cpus.data 67098.325669                       # average ReadReq mshr miss latency
system.cpu_cluster.cpus.dcache.ReadReq_avg_mshr_miss_latency::total 67098.325669                       # average ReadReq mshr miss latency
system.cpu_cluster.cpus.dcache.WriteReq_hits::.cpu_cluster.cpus.data      2671094                       # number of WriteReq hits
system.cpu_cluster.cpus.dcache.WriteReq_hits::total      2671094                       # number of WriteReq hits
system.cpu_cluster.cpus.dcache.WriteReq_misses::.cpu_cluster.cpus.data         5361                       # number of WriteReq misses
system.cpu_cluster.cpus.dcache.WriteReq_misses::total         5361                       # number of WriteReq misses
system.cpu_cluster.cpus.dcache.WriteReq_miss_latency::.cpu_cluster.cpus.data    365951878                       # number of WriteReq miss cycles
system.cpu_cluster.cpus.dcache.WriteReq_miss_latency::total    365951878                       # number of WriteReq miss cycles
system.cpu_cluster.cpus.dcache.WriteReq_accesses::.cpu_cluster.cpus.data      2676455                       # number of WriteReq accesses(hits+misses)
system.cpu_cluster.cpus.dcache.WriteReq_accesses::total      2676455                       # number of WriteReq accesses(hits+misses)
system.cpu_cluster.cpus.dcache.WriteReq_miss_rate::.cpu_cluster.cpus.data     0.002003                       # miss rate for WriteReq accesses
system.cpu_cluster.cpus.dcache.WriteReq_miss_rate::total     0.002003                       # miss rate for WriteReq accesses
system.cpu_cluster.cpus.dcache.WriteReq_avg_miss_latency::.cpu_cluster.cpus.data 68261.868681                       # average WriteReq miss latency
system.cpu_cluster.cpus.dcache.WriteReq_avg_miss_latency::total 68261.868681                       # average WriteReq miss latency
system.cpu_cluster.cpus.dcache.WriteReq_mshr_hits::.cpu_cluster.cpus.data         1897                       # number of WriteReq MSHR hits
system.cpu_cluster.cpus.dcache.WriteReq_mshr_hits::total         1897                       # number of WriteReq MSHR hits
system.cpu_cluster.cpus.dcache.WriteReq_mshr_misses::.cpu_cluster.cpus.data         3464                       # number of WriteReq MSHR misses
system.cpu_cluster.cpus.dcache.WriteReq_mshr_misses::total         3464                       # number of WriteReq MSHR misses
system.cpu_cluster.cpus.dcache.WriteReq_mshr_miss_latency::.cpu_cluster.cpus.data    252665868                       # number of WriteReq MSHR miss cycles
system.cpu_cluster.cpus.dcache.WriteReq_mshr_miss_latency::total    252665868                       # number of WriteReq MSHR miss cycles
system.cpu_cluster.cpus.dcache.WriteReq_mshr_miss_rate::.cpu_cluster.cpus.data     0.001294                       # mshr miss rate for WriteReq accesses
system.cpu_cluster.cpus.dcache.WriteReq_mshr_miss_rate::total     0.001294                       # mshr miss rate for WriteReq accesses
system.cpu_cluster.cpus.dcache.WriteReq_avg_mshr_miss_latency::.cpu_cluster.cpus.data 72940.493072                       # average WriteReq mshr miss latency
system.cpu_cluster.cpus.dcache.WriteReq_avg_mshr_miss_latency::total 72940.493072                       # average WriteReq mshr miss latency
system.cpu_cluster.cpus.dcache.WriteLineReq_hits::.cpu_cluster.cpus.data            1                       # number of WriteLineReq hits
system.cpu_cluster.cpus.dcache.WriteLineReq_hits::total            1                       # number of WriteLineReq hits
system.cpu_cluster.cpus.dcache.WriteLineReq_misses::.cpu_cluster.cpus.data           14                       # number of WriteLineReq misses
system.cpu_cluster.cpus.dcache.WriteLineReq_misses::total           14                       # number of WriteLineReq misses
system.cpu_cluster.cpus.dcache.WriteLineReq_miss_latency::.cpu_cluster.cpus.data       149226                       # number of WriteLineReq miss cycles
system.cpu_cluster.cpus.dcache.WriteLineReq_miss_latency::total       149226                       # number of WriteLineReq miss cycles
system.cpu_cluster.cpus.dcache.WriteLineReq_accesses::.cpu_cluster.cpus.data           15                       # number of WriteLineReq accesses(hits+misses)
system.cpu_cluster.cpus.dcache.WriteLineReq_accesses::total           15                       # number of WriteLineReq accesses(hits+misses)
system.cpu_cluster.cpus.dcache.WriteLineReq_miss_rate::.cpu_cluster.cpus.data     0.933333                       # miss rate for WriteLineReq accesses
system.cpu_cluster.cpus.dcache.WriteLineReq_miss_rate::total     0.933333                       # miss rate for WriteLineReq accesses
system.cpu_cluster.cpus.dcache.WriteLineReq_avg_miss_latency::.cpu_cluster.cpus.data        10659                       # average WriteLineReq miss latency
system.cpu_cluster.cpus.dcache.WriteLineReq_avg_miss_latency::total        10659                       # average WriteLineReq miss latency
system.cpu_cluster.cpus.dcache.WriteLineReq_mshr_misses::.cpu_cluster.cpus.data           14                       # number of WriteLineReq MSHR misses
system.cpu_cluster.cpus.dcache.WriteLineReq_mshr_misses::total           14                       # number of WriteLineReq MSHR misses
system.cpu_cluster.cpus.dcache.WriteLineReq_mshr_miss_latency::.cpu_cluster.cpus.data       137176                       # number of WriteLineReq MSHR miss cycles
system.cpu_cluster.cpus.dcache.WriteLineReq_mshr_miss_latency::total       137176                       # number of WriteLineReq MSHR miss cycles
system.cpu_cluster.cpus.dcache.WriteLineReq_mshr_miss_rate::.cpu_cluster.cpus.data     0.933333                       # mshr miss rate for WriteLineReq accesses
system.cpu_cluster.cpus.dcache.WriteLineReq_mshr_miss_rate::total     0.933333                       # mshr miss rate for WriteLineReq accesses
system.cpu_cluster.cpus.dcache.WriteLineReq_avg_mshr_miss_latency::.cpu_cluster.cpus.data  9798.285714                       # average WriteLineReq mshr miss latency
system.cpu_cluster.cpus.dcache.WriteLineReq_avg_mshr_miss_latency::total  9798.285714                       # average WriteLineReq mshr miss latency
system.cpu_cluster.cpus.dcache.LoadLockedReq_hits::.cpu_cluster.cpus.data           23                       # number of LoadLockedReq hits
system.cpu_cluster.cpus.dcache.LoadLockedReq_hits::total           23                       # number of LoadLockedReq hits
system.cpu_cluster.cpus.dcache.LoadLockedReq_misses::.cpu_cluster.cpus.data            1                       # number of LoadLockedReq misses
system.cpu_cluster.cpus.dcache.LoadLockedReq_misses::total            1                       # number of LoadLockedReq misses
system.cpu_cluster.cpus.dcache.LoadLockedReq_miss_latency::.cpu_cluster.cpus.data        93177                       # number of LoadLockedReq miss cycles
system.cpu_cluster.cpus.dcache.LoadLockedReq_miss_latency::total        93177                       # number of LoadLockedReq miss cycles
system.cpu_cluster.cpus.dcache.LoadLockedReq_accesses::.cpu_cluster.cpus.data           24                       # number of LoadLockedReq accesses(hits+misses)
system.cpu_cluster.cpus.dcache.LoadLockedReq_accesses::total           24                       # number of LoadLockedReq accesses(hits+misses)
system.cpu_cluster.cpus.dcache.LoadLockedReq_miss_rate::.cpu_cluster.cpus.data     0.041667                       # miss rate for LoadLockedReq accesses
system.cpu_cluster.cpus.dcache.LoadLockedReq_miss_rate::total     0.041667                       # miss rate for LoadLockedReq accesses
system.cpu_cluster.cpus.dcache.LoadLockedReq_avg_miss_latency::.cpu_cluster.cpus.data        93177                       # average LoadLockedReq miss latency
system.cpu_cluster.cpus.dcache.LoadLockedReq_avg_miss_latency::total        93177                       # average LoadLockedReq miss latency
system.cpu_cluster.cpus.dcache.LoadLockedReq_mshr_misses::.cpu_cluster.cpus.data            1                       # number of LoadLockedReq MSHR misses
system.cpu_cluster.cpus.dcache.LoadLockedReq_mshr_misses::total            1                       # number of LoadLockedReq MSHR misses
system.cpu_cluster.cpus.dcache.LoadLockedReq_mshr_miss_latency::.cpu_cluster.cpus.data        92178                       # number of LoadLockedReq MSHR miss cycles
system.cpu_cluster.cpus.dcache.LoadLockedReq_mshr_miss_latency::total        92178                       # number of LoadLockedReq MSHR miss cycles
system.cpu_cluster.cpus.dcache.LoadLockedReq_mshr_miss_rate::.cpu_cluster.cpus.data     0.041667                       # mshr miss rate for LoadLockedReq accesses
system.cpu_cluster.cpus.dcache.LoadLockedReq_mshr_miss_rate::total     0.041667                       # mshr miss rate for LoadLockedReq accesses
system.cpu_cluster.cpus.dcache.LoadLockedReq_avg_mshr_miss_latency::.cpu_cluster.cpus.data        92178                       # average LoadLockedReq mshr miss latency
system.cpu_cluster.cpus.dcache.LoadLockedReq_avg_mshr_miss_latency::total        92178                       # average LoadLockedReq mshr miss latency
system.cpu_cluster.cpus.dcache.StoreCondReq_hits::.cpu_cluster.cpus.data           24                       # number of StoreCondReq hits
system.cpu_cluster.cpus.dcache.StoreCondReq_hits::total           24                       # number of StoreCondReq hits
system.cpu_cluster.cpus.dcache.StoreCondReq_accesses::.cpu_cluster.cpus.data           24                       # number of StoreCondReq accesses(hits+misses)
system.cpu_cluster.cpus.dcache.StoreCondReq_accesses::total           24                       # number of StoreCondReq accesses(hits+misses)
system.cpu_cluster.cpus.dcache.SwapReq_hits::.cpu_cluster.cpus.data          600                       # number of SwapReq hits
system.cpu_cluster.cpus.dcache.SwapReq_hits::total          600                       # number of SwapReq hits
system.cpu_cluster.cpus.dcache.SwapReq_misses::.cpu_cluster.cpus.data            2                       # number of SwapReq misses
system.cpu_cluster.cpus.dcache.SwapReq_misses::total            2                       # number of SwapReq misses
system.cpu_cluster.cpus.dcache.SwapReq_miss_latency::.cpu_cluster.cpus.data       185997                       # number of SwapReq miss cycles
system.cpu_cluster.cpus.dcache.SwapReq_miss_latency::total       185997                       # number of SwapReq miss cycles
system.cpu_cluster.cpus.dcache.SwapReq_accesses::.cpu_cluster.cpus.data          602                       # number of SwapReq accesses(hits+misses)
system.cpu_cluster.cpus.dcache.SwapReq_accesses::total          602                       # number of SwapReq accesses(hits+misses)
system.cpu_cluster.cpus.dcache.SwapReq_miss_rate::.cpu_cluster.cpus.data     0.003322                       # miss rate for SwapReq accesses
system.cpu_cluster.cpus.dcache.SwapReq_miss_rate::total     0.003322                       # miss rate for SwapReq accesses
system.cpu_cluster.cpus.dcache.SwapReq_avg_miss_latency::.cpu_cluster.cpus.data 92998.500000                       # average SwapReq miss latency
system.cpu_cluster.cpus.dcache.SwapReq_avg_miss_latency::total 92998.500000                       # average SwapReq miss latency
system.cpu_cluster.cpus.dcache.SwapReq_mshr_misses::.cpu_cluster.cpus.data            2                       # number of SwapReq MSHR misses
system.cpu_cluster.cpus.dcache.SwapReq_mshr_misses::total            2                       # number of SwapReq MSHR misses
system.cpu_cluster.cpus.dcache.SwapReq_mshr_miss_latency::.cpu_cluster.cpus.data       184356                       # number of SwapReq MSHR miss cycles
system.cpu_cluster.cpus.dcache.SwapReq_mshr_miss_latency::total       184356                       # number of SwapReq MSHR miss cycles
system.cpu_cluster.cpus.dcache.SwapReq_mshr_miss_rate::.cpu_cluster.cpus.data     0.003322                       # mshr miss rate for SwapReq accesses
system.cpu_cluster.cpus.dcache.SwapReq_mshr_miss_rate::total     0.003322                       # mshr miss rate for SwapReq accesses
system.cpu_cluster.cpus.dcache.SwapReq_avg_mshr_miss_latency::.cpu_cluster.cpus.data        92178                       # average SwapReq mshr miss latency
system.cpu_cluster.cpus.dcache.SwapReq_avg_mshr_miss_latency::total        92178                       # average SwapReq mshr miss latency
system.cpu_cluster.cpus.dcache.tags.pwrStateResidencyTicks::UNDEFINED  10922619918                       # Cumulative time (in ticks) in various power states
system.cpu_cluster.cpus.dcache.tags.tagsinuse   508.127203                       # Cycle average of tags in use
system.cpu_cluster.cpus.dcache.tags.total_refs      5704009                       # Total number of references to valid blocks.
system.cpu_cluster.cpus.dcache.tags.sampled_refs         9309                       # Sample count of references to valid blocks.
system.cpu_cluster.cpus.dcache.tags.avg_refs   612.741326                       # Average number of references to valid blocks.
system.cpu_cluster.cpus.dcache.tags.warmup_cycle       170000                       # Cycle when the warmup percentage was hit.
system.cpu_cluster.cpus.dcache.tags.occ_blocks::.cpu_cluster.cpus.data   508.127203                       # Average occupied blocks per requestor
system.cpu_cluster.cpus.dcache.tags.occ_percent::.cpu_cluster.cpus.data     0.992436                       # Average percentage of cache occupancy
system.cpu_cluster.cpus.dcache.tags.occ_percent::total     0.992436                       # Average percentage of cache occupancy
system.cpu_cluster.cpus.dcache.tags.occ_task_id_blocks::1024          512                       # Occupied blocks per task id
system.cpu_cluster.cpus.dcache.tags.age_task_id_blocks_1024::0           47                       # Occupied blocks per task id
system.cpu_cluster.cpus.dcache.tags.age_task_id_blocks_1024::1          392                       # Occupied blocks per task id
system.cpu_cluster.cpus.dcache.tags.age_task_id_blocks_1024::2           38                       # Occupied blocks per task id
system.cpu_cluster.cpus.dcache.tags.age_task_id_blocks_1024::3           35                       # Occupied blocks per task id
system.cpu_cluster.cpus.dcache.tags.occ_task_id_percent::1024            1                       # Percentage of cache occupancy per task id
system.cpu_cluster.cpus.dcache.tags.tag_accesses     22833089                       # Number of tag accesses
system.cpu_cluster.cpus.dcache.tags.data_accesses     22833089                       # Number of data accesses
system.cpu_cluster.cpus.itb.walker.pwrStateResidencyTicks::UNDEFINED  10922619918                       # Cumulative time (in ticks) in various power states
system.cpu_cluster.cpus.itb.stage2_mmu.stage2_tlb.walker.pwrStateResidencyTicks::UNDEFINED  10922619918                       # Cumulative time (in ticks) in various power states
system.mem_ctrls.pwrStateResidencyTicks::UNDEFINED  10922619918                       # Cumulative time (in ticks) in various power states
system.mem_ctrls.bytes_read::.cpu_cluster.cpus.inst      4205952                       # Number of bytes read from this memory
system.mem_ctrls.bytes_read::.cpu_cluster.cpus.data       594880                       # Number of bytes read from this memory
system.mem_ctrls.bytes_read::total            4800832                       # Number of bytes read from this memory
system.mem_ctrls.bytes_inst_read::.cpu_cluster.cpus.inst      4205952                       # Number of instructions bytes read from this memory
system.mem_ctrls.bytes_inst_read::total       4205952                       # Number of instructions bytes read from this memory
system.mem_ctrls.bytes_written::.writebacks       358784                       # Number of bytes written to this memory
system.mem_ctrls.bytes_written::total          358784                       # Number of bytes written to this memory
system.mem_ctrls.num_reads::.cpu_cluster.cpus.inst        65718                       # Number of read requests responded to by this memory
system.mem_ctrls.num_reads::.cpu_cluster.cpus.data         9295                       # Number of read requests responded to by this memory
system.mem_ctrls.num_reads::total               75013                       # Number of read requests responded to by this memory
system.mem_ctrls.num_writes::.writebacks         5606                       # Number of write requests responded to by this memory
system.mem_ctrls.num_writes::total               5606                       # Number of write requests responded to by this memory
system.mem_ctrls.bw_read::.cpu_cluster.cpus.inst    385068054                       # Total read bandwidth from this memory (bytes/s)
system.mem_ctrls.bw_read::.cpu_cluster.cpus.data     54463124                       # Total read bandwidth from this memory (bytes/s)
system.mem_ctrls.bw_read::total             439531178                       # Total read bandwidth from this memory (bytes/s)
system.mem_ctrls.bw_inst_read::.cpu_cluster.cpus.inst    385068054                       # Instruction read bandwidth from this memory (bytes/s)
system.mem_ctrls.bw_inst_read::total        385068054                       # Instruction read bandwidth from this memory (bytes/s)
system.mem_ctrls.bw_write::.writebacks       32847797                       # Write bandwidth from this memory (bytes/s)
system.mem_ctrls.bw_write::total             32847797                       # Write bandwidth from this memory (bytes/s)
system.mem_ctrls.bw_total::.writebacks       32847797                       # Total bandwidth to/from this memory (bytes/s)
system.mem_ctrls.bw_total::.cpu_cluster.cpus.inst    385068054                       # Total bandwidth to/from this memory (bytes/s)
system.mem_ctrls.bw_total::.cpu_cluster.cpus.data     54463124                       # Total bandwidth to/from this memory (bytes/s)
system.mem_ctrls.bw_total::total            472378975                       # Total bandwidth to/from this memory (bytes/s)
system.mem_ctrls.avgPriority_.writebacks::samples     10054.00                       # Average QoS priority value for accepted requests
system.mem_ctrls.avgPriority_.cpu_cluster.cpus.inst::samples    131438.00                       # Average QoS priority value for accepted requests
system.mem_ctrls.avgPriority_.cpu_cluster.cpus.data::samples     16550.00                       # Average QoS priority value for accepted requests
system.mem_ctrls.priorityMinLatency      0.000000020000                       # per QoS priority minimum request to response latency (s)
system.mem_ctrls.priorityMaxLatency      0.000358553704                       # per QoS priority maximum request to response latency (s)
system.mem_ctrls.numReadWriteTurnArounds          595                       # Number of turnarounds from READ to WRITE
system.mem_ctrls.numWriteReadTurnArounds          595                       # Number of turnarounds from WRITE to READ
system.mem_ctrls.numStayReadState              229717                       # Number of times bus staying in READ state
system.mem_ctrls.numStayWriteState               9441                       # Number of times bus staying in WRITE state
system.mem_ctrls.readReqs                       75014                       # Number of read requests accepted
system.mem_ctrls.writeReqs                       5606                       # Number of write requests accepted
system.mem_ctrls.readBursts                    150028                       # Number of DRAM read bursts, including those serviced by the write queue
system.mem_ctrls.writeBursts                    11212                       # Number of DRAM write bursts, including those merged in the write queue
system.mem_ctrls.servicedByWrQ                   2040                       # Number of DRAM read bursts serviced by the write queue
system.mem_ctrls.mergedWrBursts                  1158                       # Number of DRAM write bursts merged with an existing one
system.mem_ctrls.neitherReadNorWriteReqs            0                       # Number of requests that are neither read nor write
system.mem_ctrls.perBankRdBursts::0             16214                       # Per bank write bursts
system.mem_ctrls.perBankRdBursts::1             15687                       # Per bank write bursts
system.mem_ctrls.perBankRdBursts::2             29409                       # Per bank write bursts
system.mem_ctrls.perBankRdBursts::3             18877                       # Per bank write bursts
system.mem_ctrls.perBankRdBursts::4              5238                       # Per bank write bursts
system.mem_ctrls.perBankRdBursts::5              7355                       # Per bank write bursts
system.mem_ctrls.perBankRdBursts::6             32126                       # Per bank write bursts
system.mem_ctrls.perBankRdBursts::7             23082                       # Per bank write bursts
system.mem_ctrls.perBankWrBursts::0              1361                       # Per bank write bursts
system.mem_ctrls.perBankWrBursts::1              1130                       # Per bank write bursts
system.mem_ctrls.perBankWrBursts::2              1251                       # Per bank write bursts
system.mem_ctrls.perBankWrBursts::3              1282                       # Per bank write bursts
system.mem_ctrls.perBankWrBursts::4              1402                       # Per bank write bursts
system.mem_ctrls.perBankWrBursts::5              1214                       # Per bank write bursts
system.mem_ctrls.perBankWrBursts::6              1059                       # Per bank write bursts
system.mem_ctrls.perBankWrBursts::7              1326                       # Per bank write bursts
system.mem_ctrls.avgRdQLen                       2.03                       # Average read queue length when enqueuing
system.mem_ctrls.avgWrQLen                      25.80                       # Average write queue length when enqueuing
system.mem_ctrls.totQLat                   2303064368                       # Total ticks spent queuing
system.mem_ctrls.totBusLat                  739940000                       # Total ticks spent in databus transfers
system.mem_ctrls.totMemAccLat              5262824368                       # Total ticks spent from burst creation until serviced by the DRAM
system.mem_ctrls.avgQLat                     15562.51                       # Average queueing delay per DRAM burst
system.mem_ctrls.avgBusLat                    5000.00                       # Average bus latency per DRAM burst
system.mem_ctrls.avgMemAccLat                35562.51                       # Average memory access latency per DRAM burst
system.mem_ctrls.numRdRetry                         0                       # Number of times read queue was full causing retry
system.mem_ctrls.numWrRetry                         0                       # Number of times write queue was full causing retry
system.mem_ctrls.readRowHits                   120920                       # Number of row buffer hits during reads
system.mem_ctrls.writeRowHits                    7908                       # Number of row buffer hits during writes
system.mem_ctrls.readRowHitRate                 81.71                       # Row buffer hit rate for reads
system.mem_ctrls.writeRowHitRate                78.66                       # Row buffer hit rate for writes
system.mem_ctrls.readPktSize::0                     0                       # Read request sizes (log2)
system.mem_ctrls.readPktSize::1                     0                       # Read request sizes (log2)
system.mem_ctrls.readPktSize::2                     0                       # Read request sizes (log2)
system.mem_ctrls.readPktSize::3                     0                       # Read request sizes (log2)
system.mem_ctrls.readPktSize::4                     0                       # Read request sizes (log2)
system.mem_ctrls.readPktSize::5                150028                       # Read request sizes (log2)
system.mem_ctrls.writePktSize::0                    0                       # Write request sizes (log2)
system.mem_ctrls.writePktSize::1                    0                       # Write request sizes (log2)
system.mem_ctrls.writePktSize::2                    0                       # Write request sizes (log2)
system.mem_ctrls.writePktSize::3                    0                       # Write request sizes (log2)
system.mem_ctrls.writePktSize::4                    0                       # Write request sizes (log2)
system.mem_ctrls.writePktSize::5                11212                       # Write request sizes (log2)
system.mem_ctrls.rdQLenPdf::0                   71919                       # What read queue length does an incoming req see
system.mem_ctrls.rdQLenPdf::1                   72331                       # What read queue length does an incoming req see
system.mem_ctrls.rdQLenPdf::2                    2056                       # What read queue length does an incoming req see
system.mem_ctrls.rdQLenPdf::3                    1637                       # What read queue length does an incoming req see
system.mem_ctrls.rdQLenPdf::4                      25                       # What read queue length does an incoming req see
[...]
system.mem_ctrls.wrQLenPdf::2                       1                       # What write queue length does an incoming req see
system.mem_ctrls.wrQLenPdf::3                       1                       # What write queue length does an incoming req see
system.mem_ctrls.wrQLenPdf::4                       1                       # What write queue length does an incoming req see
system.mem_ctrls.wrQLenPdf::5                       1                       # What write queue length does an incoming req see
system.mem_ctrls.wrQLenPdf::6                       1                       # What write queue length does an incoming req see
system.mem_ctrls.wrQLenPdf::7                       1                       # What write queue length does an incoming req see
system.mem_ctrls.wrQLenPdf::8                       1                       # What write queue length does an incoming req see
system.mem_ctrls.wrQLenPdf::9                       1                       # What write queue length does an incoming req see
system.mem_ctrls.wrQLenPdf::10                      1                       # What write queue length does an incoming req see
system.mem_ctrls.wrQLenPdf::11                      1                       # What write queue length does an incoming req see
system.mem_ctrls.wrQLenPdf::12                      1                       # What write queue length does an incoming req see
system.mem_ctrls.wrQLenPdf::13                      1                       # What write queue length does an incoming req see
system.mem_ctrls.wrQLenPdf::14                      1                       # What write queue length does an incoming req see
system.mem_ctrls.wrQLenPdf::15                    188                       # What write queue length does an incoming req see
system.mem_ctrls.wrQLenPdf::16                    204                       # What write queue length does an incoming req see
system.mem_ctrls.wrQLenPdf::17                    529                       # What write queue length does an incoming req see
system.mem_ctrls.wrQLenPdf::18                    583                       # What write queue length does an incoming req see
system.mem_ctrls.wrQLenPdf::19                    600                       # What write queue length does an incoming req see
system.mem_ctrls.wrQLenPdf::20                    602                       # What write queue length does an incoming req see
system.mem_ctrls.wrQLenPdf::21                    608                       # What write queue length does an incoming req see
system.mem_ctrls.wrQLenPdf::22                    607                       # What write queue length does an incoming req see
system.mem_ctrls.wrQLenPdf::23                    597                       # What write queue length does an incoming req see
system.mem_ctrls.wrQLenPdf::24                    601                       # What write queue length does an incoming req see
system.mem_ctrls.wrQLenPdf::25                    612                       # What write queue length does an incoming req see
system.mem_ctrls.wrQLenPdf::26                    613                       # What write queue length does an incoming req see
system.mem_ctrls.wrQLenPdf::27                    606                       # What write queue length does an incoming req see
system.mem_ctrls.wrQLenPdf::28                    606                       # What write queue length does an incoming req see
system.mem_ctrls.wrQLenPdf::29                    603                       # What write queue length does an incoming req see
system.mem_ctrls.wrQLenPdf::30                    599                       # What write queue length does an incoming req see
system.mem_ctrls.wrQLenPdf::31                    595                       # What write queue length does an incoming req see
system.mem_ctrls.wrQLenPdf::32                    595                       # What write queue length does an incoming req see
system.mem_ctrls.wrQLenPdf::33                     90                       # What write queue length does an incoming req see
system.mem_ctrls.wrQLenPdf::34                      1                       # What write queue length does an incoming req see
system.mem_ctrls.wrQLenPdf::35                      0                       # What write queue length does an incoming req see
system.mem_ctrls.wrQLenPdf::36                      0                       # What write queue length does an incoming req see
system.mem_ctrls.wrQLenPdf::37                      0                       # What write queue length does an incoming req see
system.mem_ctrls.wrQLenPdf::38                      0                       # What write queue length does an incoming req see
system.mem_ctrls.wrQLenPdf::39                      0                       # What write queue length does an incoming req see
system.mem_ctrls.wrQLenPdf::40                      0                       # What write queue length does an incoming req see
system.mem_ctrls.wrQLenPdf::41                      0                       # What write queue length does an incoming req see
system.mem_ctrls.wrQLenPdf::42                      0                       # What write queue length does an incoming req see
system.mem_ctrls.wrQLenPdf::43                      0                       # What write queue length does an incoming req see
system.mem_ctrls.wrQLenPdf::44                      0                       # What write queue length does an incoming req see
system.mem_ctrls.wrQLenPdf::45                      0                       # What write queue length does an incoming req see
system.mem_ctrls.wrQLenPdf::46                      0                       # What write queue length does an incoming req see
system.mem_ctrls.wrQLenPdf::47                      0                       # What write queue length does an incoming req see
system.mem_ctrls.wrQLenPdf::48                      0                       # What write queue length does an incoming req see
system.mem_ctrls.wrQLenPdf::49                      0                       # What write queue length does an incoming req see
system.mem_ctrls.wrQLenPdf::50                      0                       # What write queue length does an incoming req see
system.mem_ctrls.wrQLenPdf::51                      0                       # What write queue length does an incoming req see
system.mem_ctrls.wrQLenPdf::52                      0                       # What write queue length does an incoming req see
system.mem_ctrls.wrQLenPdf::53                      0                       # What write queue length does an incoming req see
system.mem_ctrls.wrQLenPdf::54                      0                       # What write queue length does an incoming req see
system.mem_ctrls.wrQLenPdf::55                      0                       # What write queue length does an incoming req see
system.mem_ctrls.wrQLenPdf::56                      0                       # What write queue length does an incoming req see
system.mem_ctrls.wrQLenPdf::57                      0                       # What write queue length does an incoming req see
system.mem_ctrls.wrQLenPdf::58                      0                       # What write queue length does an incoming req see
system.mem_ctrls.wrQLenPdf::59                      0                       # What write queue length does an incoming req see
system.mem_ctrls.wrQLenPdf::60                      0                       # What write queue length does an incoming req see
system.mem_ctrls.wrQLenPdf::61                      0                       # What write queue length does an incoming req see
system.mem_ctrls.wrQLenPdf::62                      0                       # What write queue length does an incoming req see
system.mem_ctrls.wrQLenPdf::63                      0                       # What write queue length does an incoming req see
system.mem_ctrls.bytesPerActivate::samples        29180                       # Bytes accessed per row activation
system.mem_ctrls.bytesPerActivate::mean    173.252913                       # Bytes accessed per row activation
system.mem_ctrls.bytesPerActivate::gmean   137.611018                       # Bytes accessed per row activation
system.mem_ctrls.bytesPerActivate::stdev   121.699410                       # Bytes accessed per row activation
system.mem_ctrls.bytesPerActivate::0-63           239      0.82%      0.82% # Bytes accessed per row activation
system.mem_ctrls.bytesPerActivate::64-127        10155     34.80%     35.62% # Bytes accessed per row activation
system.mem_ctrls.bytesPerActivate::128-191         5644     19.34%     54.96% # Bytes accessed per row activation
system.mem_ctrls.bytesPerActivate::192-255         6127     21.00%     75.96% # Bytes accessed per row activation
system.mem_ctrls.bytesPerActivate::256-319         1969      6.75%     82.71% # Bytes accessed per row activation
system.mem_ctrls.bytesPerActivate::320-383         2501      8.57%     91.28% # Bytes accessed per row activation
system.mem_ctrls.bytesPerActivate::384-447          661      2.27%     93.54% # Bytes accessed per row activation
system.mem_ctrls.bytesPerActivate::448-511          529      1.81%     95.36% # Bytes accessed per row activation
system.mem_ctrls.bytesPerActivate::512-575         1355      4.64%    100.00% # Bytes accessed per row activation
system.mem_ctrls.bytesPerActivate::total        29180                       # Bytes accessed per row activation
system.mem_ctrls.rdPerTurnAround::samples          595                       # Reads before turning the bus around for writes
system.mem_ctrls.rdPerTurnAround::mean     248.544538                       # Reads before turning the bus around for writes
system.mem_ctrls.rdPerTurnAround::gmean     59.841386                       # Reads before turning the bus around for writes
system.mem_ctrls.rdPerTurnAround::stdev    475.205501                       # Reads before turning the bus around for writes
system.mem_ctrls.rdPerTurnAround::0-127           457     76.81%     76.81% # Reads before turning the bus around for writes
system.mem_ctrls.rdPerTurnAround::128-255            5      0.84%     77.65% # Reads before turning the bus around for writes
system.mem_ctrls.rdPerTurnAround::256-383           24      4.03%     81.68% # Reads before turning the bus around for writes
system.mem_ctrls.rdPerTurnAround::384-511            5      0.84%     82.52% # Reads before turning the bus around for writes
system.mem_ctrls.rdPerTurnAround::512-639            9      1.51%     84.03% # Reads before turning the bus around for writes
system.mem_ctrls.rdPerTurnAround::640-767           14      2.35%     86.39% # Reads before turning the bus around for writes
system.mem_ctrls.rdPerTurnAround::768-895           13      2.18%     88.57% # Reads before turning the bus around for writes
system.mem_ctrls.rdPerTurnAround::896-1023            5      0.84%     89.41% # Reads before turning the bus around for writes
system.mem_ctrls.rdPerTurnAround::1024-1151           11      1.85%     91.26% # Reads before turning the bus around for writes
system.mem_ctrls.rdPerTurnAround::1152-1279            8      1.34%     92.61% # Reads before turning the bus around for writes
system.mem_ctrls.rdPerTurnAround::1280-1407           13      2.18%     94.79% # Reads before turning the bus around for writes
system.mem_ctrls.rdPerTurnAround::1408-1535           10      1.68%     96.47% # Reads before turning the bus around for writes
system.mem_ctrls.rdPerTurnAround::1536-1663            3      0.50%     96.97% # Reads before turning the bus around for writes
system.mem_ctrls.rdPerTurnAround::1664-1791            5      0.84%     97.82% # Reads before turning the bus around for writes
system.mem_ctrls.rdPerTurnAround::1792-1919            9      1.51%     99.33% # Reads before turning the bus around for writes
system.mem_ctrls.rdPerTurnAround::1920-2047            2      0.34%     99.66% # Reads before turning the bus around for writes
system.mem_ctrls.rdPerTurnAround::2432-2559            1      0.17%     99.83% # Reads before turning the bus around for writes
system.mem_ctrls.rdPerTurnAround::2560-2687            1      0.17%    100.00% # Reads before turning the bus around for writes
system.mem_ctrls.rdPerTurnAround::total           595                       # Reads before turning the bus around for writes
system.mem_ctrls.wrPerTurnAround::samples          595                       # Writes before turning the bus around for reads
system.mem_ctrls.wrPerTurnAround::mean      16.848739                       # Writes before turning the bus around for reads
system.mem_ctrls.wrPerTurnAround::gmean     16.802918                       # Writes before turning the bus around for reads
system.mem_ctrls.wrPerTurnAround::stdev      1.279459                       # Writes before turning the bus around for reads
system.mem_ctrls.wrPerTurnAround::16              389     65.38%     65.38% # Writes before turning the bus around for reads
system.mem_ctrls.wrPerTurnAround::17               12      2.02%     67.39% # Writes before turning the bus around for reads
system.mem_ctrls.wrPerTurnAround::18              129     21.68%     89.08% # Writes before turning the bus around for reads
system.mem_ctrls.wrPerTurnAround::19               29      4.87%     93.95% # Writes before turning the bus around for reads
system.mem_ctrls.wrPerTurnAround::20               32      5.38%     99.33% # Writes before turning the bus around for reads
system.mem_ctrls.wrPerTurnAround::21                4      0.67%    100.00% # Writes before turning the bus around for reads
system.mem_ctrls.wrPerTurnAround::total           595                       # Writes before turning the bus around for reads
system.mem_ctrls.bytesReadDRAM                4735616                       # Total number of bytes read from DRAM
system.mem_ctrls.bytesReadWrQ                   65280                       # Total number of bytes read from write queue
system.mem_ctrls.bytesWritten                  320800                       # Total number of bytes written to DRAM
system.mem_ctrls.bytesReadSys                 4800896                       # Total read bytes from the system interface side
system.mem_ctrls.bytesWrittenSys               358784                       # Total written bytes from the system interface side
system.mem_ctrls.avgRdBW                       433.56                       # Average DRAM read bandwidth in MiByte/s
system.mem_ctrls.avgWrBW                        29.37                       # Average achieved write bandwidth in MiByte/s
system.mem_ctrls.avgRdBWSys                    439.54                       # Average system read bandwidth in MiByte/s
system.mem_ctrls.avgWrBWSys                     32.85                       # Average system write bandwidth in MiByte/s
system.mem_ctrls.peakBW                       6400.00                       # Theoretical peak bandwidth in MiByte/s
system.mem_ctrls.busUtil                         7.23                       # Data bus utilization in percentage
system.mem_ctrls.busUtilRead                     6.77                       # Data bus utilization in percentage for reads
system.mem_ctrls.busUtilWrite                    0.46                       # Data bus utilization in percentage for writes
system.mem_ctrls.totGap                   10922617929                       # Total gap between requests
system.mem_ctrls.avgGap                     135482.73                       # Average gap between requests
system.mem_ctrls.masterReadBytes::.cpu_cluster.cpus.inst      4206016                       # Per-master bytes read from memory
system.mem_ctrls.masterReadBytes::.cpu_cluster.cpus.data       529600                       # Per-master bytes read from memory
system.mem_ctrls.masterWriteBytes::.writebacks       320800                       # Per-master bytes write to memory
system.mem_ctrls.masterReadRate::.cpu_cluster.cpus.inst 385073913.729129135609                       # Per-master bytes read from memory rate (Bytes/sec)
system.mem_ctrls.masterReadRate::.cpu_cluster.cpus.data 48486535.645833685994                       # Per-master bytes read from memory rate (Bytes/sec)
system.mem_ctrls.masterWriteRate::.writebacks 29370242.891207411885                       # Per-master bytes write to memory rate (Bytes/sec)
system.mem_ctrls.masterReadAccesses::.cpu_cluster.cpus.inst       131438                       # Per-master read serviced memory accesses
system.mem_ctrls.masterReadAccesses::.cpu_cluster.cpus.data        18590                       # Per-master read serviced memory accesses
system.mem_ctrls.masterWriteAccesses::.writebacks        11212                       # Per-master write serviced memory accesses
system.mem_ctrls.masterReadTotalLat::.cpu_cluster.cpus.inst   4587080712                       # Per-master read total memory access latency
system.mem_ctrls.masterReadTotalLat::.cpu_cluster.cpus.data    675743656                       # Per-master read total memory access latency
system.mem_ctrls.masterWriteTotalLat::.writebacks 260194926178                       # Per-master write total memory access latency
system.mem_ctrls.masterReadAvgLat::.cpu_cluster.cpus.inst     34899.20                       # Per-master read average memory access latency
system.mem_ctrls.masterReadAvgLat::.cpu_cluster.cpus.data     36349.85                       # Per-master read average memory access latency
system.mem_ctrls.masterWriteAvgLat::.writebacks  23206825.38                       # Per-master write average memory access latency
system.mem_ctrls.pageHitRate                    81.52                       # Row buffer hit rate, read and write combined
system.mem_ctrls.rank0.actEnergy             52095225                       # Energy for activate commands per rank (pJ)
system.mem_ctrls.rank0.preEnergy         27452544.000000                       # Energy for precharge commands per rank (pJ)
system.mem_ctrls.rank0.readEnergy           174032712                       # Energy for read commands per rank (pJ)
system.mem_ctrls.rank0.writeEnergy            9383400                       # Energy for write commands per rank (pJ)
system.mem_ctrls.rank0.refreshEnergy         68018340                       # Energy for refresh commands per rank (pJ)
system.mem_ctrls.rank0.actBackEnergy     380618944.500000                       # Energy for active background per rank (pJ)
system.mem_ctrls.rank0.preBackEnergy     76707957.600000                       # Energy for precharge background per rank (pJ)
system.mem_ctrls.rank0.actPowerDownEnergy            0                       # Energy for active power-down per rank (pJ)
system.mem_ctrls.rank0.prePowerDownEnergy            0                       # Energy for precharge power-down per rank (pJ)
system.mem_ctrls.rank0.selfRefreshEnergy            0                       # Energy for self refresh per rank (pJ)
system.mem_ctrls.rank0.totalEnergy       788309123.100003                       # Total energy per rank (pJ)
system.mem_ctrls.rank0.averagePower         72.172165                       # Core power per rank (mW)
system.mem_ctrls.rank0.totalIdleTime                0                       # Total Idle time Per DRAM Rank
system.mem_ctrls.rank0.memoryStateTime::IDLE   2238864509                       # Time in different power states
system.mem_ctrls.rank0.memoryStateTime::REF    365690000                       # Time in different power states
system.mem_ctrls.rank0.memoryStateTime::SREF            0                       # Time in different power states
system.mem_ctrls.rank0.memoryStateTime::PRE_PDN            0                       # Time in different power states
system.mem_ctrls.rank0.memoryStateTime::ACT   8318065409                       # Time in different power states
system.mem_ctrls.rank0.memoryStateTime::ACT_PDN            0                       # Time in different power states

---------- End Simulation Statistics   ----------
