
---------- Begin Simulation Statistics ----------
final_tick                               292138217500                       # Number of ticks from beginning of simulation (restored from checkpoints and never reset)
host_inst_rate                                 113480                       # Simulator instruction rate (inst/s)
host_mem_usage                                4607152                       # Number of bytes of host memory used
host_op_rate                                   137253                       # Simulator op (including micro ops) rate (op/s)
host_seconds                                  2990.01                       # Real time elapsed on the host
host_tick_rate                               97704863                       # Simulator tick rate (ticks/s)
sim_freq                                 1000000000000                       # Frequency of simulated ticks
sim_insts                                   339304859                       # Number of instructions simulated
sim_ops                                     410388816                       # Number of ops (including micro ops) simulated
sim_seconds                                  0.292138                       # Number of seconds simulated
sim_ticks                                292138217500                       # Number of ticks simulated
system.cpu_cluster.cpus.branchPred.BTBCorrect            0                       # Number of correct BTB predictions (this stat may not work properly.
system.cpu_cluster.cpus.branchPred.BTBHitPct    94.552306                       # BTB Hit Percentage
system.cpu_cluster.cpus.branchPred.BTBHits     12820680                       # Number of BTB hits
system.cpu_cluster.cpus.branchPred.BTBLookups     13559352                       # Number of BTB lookups
system.cpu_cluster.cpus.branchPred.RASInCorrect            0                       # Number of incorrect RAS predictions.
system.cpu_cluster.cpus.branchPred.condIncorrect      1680366                       # Number of conditional branches incorrect
system.cpu_cluster.cpus.branchPred.condPredicted     41457708                       # Number of conditional branches predicted
system.cpu_cluster.cpus.branchPred.indirectHits        34146                       # Number of indirect target hits.
system.cpu_cluster.cpus.branchPred.indirectLookups        35958                       # Number of indirect predictor lookups.
system.cpu_cluster.cpus.branchPred.indirectMisses         1812                       # Number of indirect misses.
system.cpu_cluster.cpus.branchPred.lookups     46096178                       # Number of BP lookups
system.cpu_cluster.cpus.branchPred.usedRAS      1875105                       # Number of times the RAS was used to get a target.
system.cpu_cluster.cpus.branchPredindirectMispredicted         2929                       # Number of mispredicted indirect branches.
system.cpu_cluster.cpus.committedInsts      339304859                       # Number of instructions committed
system.cpu_cluster.cpus.committedOps        410388816                       # Number of ops (including micro ops) committed
system.cpu_cluster.cpus.cpi                  1.377585                       # CPI: cycles per instruction
system.cpu_cluster.cpus.discardedOps          4677644                       # Number of ops (including micro ops) which were discarded before commit
system.cpu_cluster.cpus.dtb.accesses                0                       # DTB accesses
system.cpu_cluster.cpus.dtb.align_faults            0                       # Number of TLB faults due to alignment restrictions
system.cpu_cluster.cpus.dtb.domain_faults            0                       # Number of TLB faults due to domain restrictions
system.cpu_cluster.cpus.dtb.flush_entries            0                       # Number of entries that have been flushed from TLB
system.cpu_cluster.cpus.dtb.flush_tlb               0                       # Number of times complete TLB was flushed
system.cpu_cluster.cpus.dtb.flush_tlb_asid            0                       # Number of times TLB was flushed by ASID
system.cpu_cluster.cpus.dtb.flush_tlb_mva            0                       # Number of times TLB was flushed by MVA
system.cpu_cluster.cpus.dtb.flush_tlb_mva_asid            0                       # Number of times TLB was flushed by MVA & ASID
system.cpu_cluster.cpus.dtb.hits                    0                       # DTB hits
system.cpu_cluster.cpus.dtb.inst_accesses            0                       # ITB inst accesses
system.cpu_cluster.cpus.dtb.inst_hits               0                       # ITB inst hits
system.cpu_cluster.cpus.dtb.inst_misses             0                       # ITB inst misses
system.cpu_cluster.cpus.dtb.misses                  0                       # DTB misses
system.cpu_cluster.cpus.dtb.perms_faults            0                       # Number of TLB faults due to permissions restrictions
system.cpu_cluster.cpus.dtb.prefetch_faults            0                       # Number of TLB faults due to prefetch
system.cpu_cluster.cpus.dtb.read_accesses            0                       # DTB read accesses
system.cpu_cluster.cpus.dtb.read_hits               0                       # DTB read hits
system.cpu_cluster.cpus.dtb.read_misses             0                       # DTB read misses
system.cpu_cluster.cpus.dtb.stage2_mmu.stage2_tlb.accesses            0                       # DTB accesses
system.cpu_cluster.cpus.dtb.stage2_mmu.stage2_tlb.align_faults            0                       # Number of TLB faults due to alignment restrictions
system.cpu_cluster.cpus.dtb.stage2_mmu.stage2_tlb.domain_faults            0                       # Number of TLB faults due to domain restrictions
system.cpu_cluster.cpus.dtb.stage2_mmu.stage2_tlb.flush_entries            0                       # Number of entries that have been flushed from TLB
system.cpu_cluster.cpus.dtb.stage2_mmu.stage2_tlb.flush_tlb            0                       # Number of times complete TLB was flushed
system.cpu_cluster.cpus.dtb.stage2_mmu.stage2_tlb.flush_tlb_asid            0                       # Number of times TLB was flushed by ASID
system.cpu_cluster.cpus.dtb.stage2_mmu.stage2_tlb.flush_tlb_mva            0                       # Number of times TLB was flushed by MVA
system.cpu_cluster.cpus.dtb.stage2_mmu.stage2_tlb.flush_tlb_mva_asid            0                       # Number of times TLB was flushed by MVA & ASID
system.cpu_cluster.cpus.dtb.stage2_mmu.stage2_tlb.hits            0                       # DTB hits
system.cpu_cluster.cpus.dtb.stage2_mmu.stage2_tlb.inst_accesses            0                       # ITB inst accesses
system.cpu_cluster.cpus.dtb.stage2_mmu.stage2_tlb.inst_hits            0                       # ITB inst hits
system.cpu_cluster.cpus.dtb.stage2_mmu.stage2_tlb.inst_misses            0                       # ITB inst misses
system.cpu_cluster.cpus.dtb.stage2_mmu.stage2_tlb.misses            0                       # DTB misses
system.cpu_cluster.cpus.dtb.stage2_mmu.stage2_tlb.perms_faults            0                       # Number of TLB faults due to permissions restrictions
system.cpu_cluster.cpus.dtb.stage2_mmu.stage2_tlb.prefetch_faults            0                       # Number of TLB faults due to prefetch
system.cpu_cluster.cpus.dtb.stage2_mmu.stage2_tlb.read_accesses            0                       # DTB read accesses
system.cpu_cluster.cpus.dtb.stage2_mmu.stage2_tlb.read_hits            0                       # DTB read hits
system.cpu_cluster.cpus.dtb.stage2_mmu.stage2_tlb.read_misses            0                       # DTB read misses
system.cpu_cluster.cpus.dtb.stage2_mmu.stage2_tlb.walker.walkRequestOrigin_Requested::Data            0                       # Table walker requests started/completed, data/inst
system.cpu_cluster.cpus.dtb.stage2_mmu.stage2_tlb.walker.walkRequestOrigin_Requested::Inst            0                       # Table walker requests started/completed, data/inst
system.cpu_cluster.cpus.dtb.stage2_mmu.stage2_tlb.walker.walkRequestOrigin_Requested::total            0                       # Table walker requests started/completed, data/inst
system.cpu_cluster.cpus.dtb.stage2_mmu.stage2_tlb.walker.walkRequestOrigin_Completed::Data            0                       # Table walker requests started/completed, data/inst
system.cpu_cluster.cpus.dtb.stage2_mmu.stage2_tlb.walker.walkRequestOrigin_Completed::Inst            0                       # Table walker requests started/completed, data/inst
system.cpu_cluster.cpus.dtb.stage2_mmu.stage2_tlb.walker.walkRequestOrigin_Completed::total            0                       # Table walker requests started/completed, data/inst
system.cpu_cluster.cpus.dtb.stage2_mmu.stage2_tlb.walker.walkRequestOrigin::total            0                       # Table walker requests started/completed, data/inst
system.cpu_cluster.cpus.dtb.stage2_mmu.stage2_tlb.walker.walks            0                       # Table walker walks requested
system.cpu_cluster.cpus.dtb.stage2_mmu.stage2_tlb.write_accesses            0                       # DTB write accesses
system.cpu_cluster.cpus.dtb.stage2_mmu.stage2_tlb.write_hits            0                       # DTB write hits
system.cpu_cluster.cpus.dtb.stage2_mmu.stage2_tlb.write_misses            0                       # DTB write misses
system.cpu_cluster.cpus.dtb.walker.walkRequestOrigin_Requested::Data            0                       # Table walker requests started/completed, data/inst
system.cpu_cluster.cpus.dtb.walker.walkRequestOrigin_Requested::Inst            0                       # Table walker requests started/completed, data/inst
system.cpu_cluster.cpus.dtb.walker.walkRequestOrigin_Requested::total            0                       # Table walker requests started/completed, data/inst
system.cpu_cluster.cpus.dtb.walker.walkRequestOrigin_Completed::Data            0                       # Table walker requests started/completed, data/inst
system.cpu_cluster.cpus.dtb.walker.walkRequestOrigin_Completed::Inst            0                       # Table walker requests started/completed, data/inst
system.cpu_cluster.cpus.dtb.walker.walkRequestOrigin_Completed::total            0                       # Table walker requests started/completed, data/inst
system.cpu_cluster.cpus.dtb.walker.walkRequestOrigin::total            0                       # Table walker requests started/completed, data/inst
system.cpu_cluster.cpus.dtb.walker.walks            0                       # Table walker walks requested
system.cpu_cluster.cpus.dtb.write_accesses            0                       # DTB write accesses
system.cpu_cluster.cpus.dtb.write_hits              0                       # DTB write hits
system.cpu_cluster.cpus.dtb.write_misses            0                       # DTB write misses
system.cpu_cluster.cpus.fetch2.amo_instructions          218                       # Number of memory atomic instructions successfully decoded
system.cpu_cluster.cpus.fetch2.fp_instructions            0                       # Number of floating point instructions successfully decoded
system.cpu_cluster.cpus.fetch2.int_instructions    178138902                       # Number of integer instructions successfully decoded
system.cpu_cluster.cpus.fetch2.load_instructions     74205865                       # Number of memory load instructions successfully decoded
system.cpu_cluster.cpus.fetch2.store_instructions     21000921                       # Number of memory store instructions successfully decoded
system.cpu_cluster.cpus.fetch2.vec_instructions        91831                       # Number of SIMD instructions successfully decoded
system.cpu_cluster.cpus.idleCycles           18170599                       # Total number of cycles that the object has spent stopped
system.cpu_cluster.cpus.ipc                  0.725908                       # IPC: instructions per cycle
system.cpu_cluster.cpus.itb.accesses                0                       # DTB accesses
system.cpu_cluster.cpus.itb.align_faults            0                       # Number of TLB faults due to alignment restrictions
system.cpu_cluster.cpus.itb.domain_faults            0                       # Number of TLB faults due to domain restrictions
system.cpu_cluster.cpus.itb.flush_entries            0                       # Number of entries that have been flushed from TLB
system.cpu_cluster.cpus.itb.flush_tlb               0                       # Number of times complete TLB was flushed
system.cpu_cluster.cpus.itb.flush_tlb_asid            0                       # Number of times TLB was flushed by ASID
system.cpu_cluster.cpus.itb.flush_tlb_mva            0                       # Number of times TLB was flushed by MVA
system.cpu_cluster.cpus.itb.flush_tlb_mva_asid            0                       # Number of times TLB was flushed by MVA & ASID
system.cpu_cluster.cpus.itb.hits                    0                       # DTB hits
system.cpu_cluster.cpus.itb.inst_accesses            0                       # ITB inst accesses
system.cpu_cluster.cpus.itb.inst_hits               0                       # ITB inst hits
system.cpu_cluster.cpus.itb.inst_misses             0                       # ITB inst misses
system.cpu_cluster.cpus.itb.misses                  0                       # DTB misses
system.cpu_cluster.cpus.itb.perms_faults            0                       # Number of TLB faults due to permissions restrictions
system.cpu_cluster.cpus.itb.prefetch_faults            0                       # Number of TLB faults due to prefetch
system.cpu_cluster.cpus.itb.read_accesses            0                       # DTB read accesses
system.cpu_cluster.cpus.itb.read_hits               0                       # DTB read hits
system.cpu_cluster.cpus.itb.read_misses             0                       # DTB read misses
system.cpu_cluster.cpus.itb.stage2_mmu.stage2_tlb.accesses            0                       # DTB accesses
system.cpu_cluster.cpus.itb.stage2_mmu.stage2_tlb.align_faults            0                       # Number of TLB faults due to alignment restrictions
system.cpu_cluster.cpus.itb.stage2_mmu.stage2_tlb.domain_faults            0                       # Number of TLB faults due to domain restrictions
system.cpu_cluster.cpus.itb.stage2_mmu.stage2_tlb.flush_entries            0                       # Number of entries that have been flushed from TLB
system.cpu_cluster.cpus.itb.stage2_mmu.stage2_tlb.flush_tlb            0                       # Number of times complete TLB was flushed
system.cpu_cluster.cpus.itb.stage2_mmu.stage2_tlb.flush_tlb_asid            0                       # Number of times TLB was flushed by ASID
system.cpu_cluster.cpus.itb.stage2_mmu.stage2_tlb.flush_tlb_mva            0                       # Number of times TLB was flushed by MVA
system.cpu_cluster.cpus.itb.stage2_mmu.stage2_tlb.flush_tlb_mva_asid            0                       # Number of times TLB was flushed by MVA & ASID
system.cpu_cluster.cpus.itb.stage2_mmu.stage2_tlb.hits            0                       # DTB hits
system.cpu_cluster.cpus.itb.stage2_mmu.stage2_tlb.inst_accesses            0                       # ITB inst accesses
system.cpu_cluster.cpus.itb.stage2_mmu.stage2_tlb.inst_hits            0                       # ITB inst hits
system.cpu_cluster.cpus.itb.stage2_mmu.stage2_tlb.inst_misses            0                       # ITB inst misses
system.cpu_cluster.cpus.itb.stage2_mmu.stage2_tlb.misses            0                       # DTB misses
system.cpu_cluster.cpus.itb.stage2_mmu.stage2_tlb.perms_faults            0                       # Number of TLB faults due to permissions restrictions
system.cpu_cluster.cpus.itb.stage2_mmu.stage2_tlb.prefetch_faults            0                       # Number of TLB faults due to prefetch
system.cpu_cluster.cpus.itb.stage2_mmu.stage2_tlb.read_accesses            0                       # DTB read accesses
system.cpu_cluster.cpus.itb.stage2_mmu.stage2_tlb.read_hits            0                       # DTB read hits
system.cpu_cluster.cpus.itb.stage2_mmu.stage2_tlb.read_misses            0                       # DTB read misses
system.cpu_cluster.cpus.itb.stage2_mmu.stage2_tlb.walker.walkRequestOrigin_Requested::Data            0                       # Table walker requests started/completed, data/inst
system.cpu_cluster.cpus.itb.stage2_mmu.stage2_tlb.walker.walkRequestOrigin_Requested::Inst            0                       # Table walker requests started/completed, data/inst
system.cpu_cluster.cpus.itb.stage2_mmu.stage2_tlb.walker.walkRequestOrigin_Requested::total            0                       # Table walker requests started/completed, data/inst
system.cpu_cluster.cpus.itb.stage2_mmu.stage2_tlb.walker.walkRequestOrigin_Completed::Data            0                       # Table walker requests started/completed, data/inst
system.cpu_cluster.cpus.itb.stage2_mmu.stage2_tlb.walker.walkRequestOrigin_Completed::Inst            0                       # Table walker requests started/completed, data/inst
system.cpu_cluster.cpus.itb.stage2_mmu.stage2_tlb.walker.walkRequestOrigin_Completed::total            0                       # Table walker requests started/completed, data/inst
system.cpu_cluster.cpus.itb.stage2_mmu.stage2_tlb.walker.walkRequestOrigin::total            0                       # Table walker requests started/completed, data/inst
system.cpu_cluster.cpus.itb.stage2_mmu.stage2_tlb.walker.walks            0                       # Table walker walks requested
system.cpu_cluster.cpus.itb.stage2_mmu.stage2_tlb.write_accesses            0                       # DTB write accesses
system.cpu_cluster.cpus.itb.stage2_mmu.stage2_tlb.write_hits            0                       # DTB write hits
system.cpu_cluster.cpus.itb.stage2_mmu.stage2_tlb.write_misses            0                       # DTB write misses
system.cpu_cluster.cpus.itb.walker.walkRequestOrigin_Requested::Data            0                       # Table walker requests started/completed, data/inst
system.cpu_cluster.cpus.itb.walker.walkRequestOrigin_Requested::Inst            0                       # Table walker requests started/completed, data/inst
system.cpu_cluster.cpus.itb.walker.walkRequestOrigin_Requested::total            0                       # Table walker requests started/completed, data/inst
system.cpu_cluster.cpus.itb.walker.walkRequestOrigin_Completed::Data            0                       # Table walker requests started/completed, data/inst
system.cpu_cluster.cpus.itb.walker.walkRequestOrigin_Completed::Inst            0                       # Table walker requests started/completed, data/inst
system.cpu_cluster.cpus.itb.walker.walkRequestOrigin_Completed::total            0                       # Table walker requests started/completed, data/inst
system.cpu_cluster.cpus.itb.walker.walkRequestOrigin::total            0                       # Table walker requests started/completed, data/inst
system.cpu_cluster.cpus.itb.walker.walks            0                       # Table walker walks requested
system.cpu_cluster.cpus.itb.write_accesses            0                       # DTB write accesses
system.cpu_cluster.cpus.itb.write_hits              0                       # DTB write hits
system.cpu_cluster.cpus.itb.write_misses            0                       # DTB write misses
system.cpu_cluster.cpus.numCycles           467421148                       # number of cpu cycles simulated
system.cpu_cluster.cpus.numFetchSuspends            0                       # Number of times Execute suspended instruction fetching
system.cpu_cluster.cpus.numWorkItemsCompleted            0                       # number of work items this cpu completed
system.cpu_cluster.cpus.numWorkItemsStarted            0                       # number of work items this cpu started
system.cpu_cluster.cpus.op_class_0::No_OpClass        24895      0.01%      0.01% # Class of committed instruction
system.cpu_cluster.cpus.op_class_0::IntAlu    253373212     61.74%     61.75% # Class of committed instruction
system.cpu_cluster.cpus.op_class_0::IntMult         9069      0.00%     61.75% # Class of committed instruction
system.cpu_cluster.cpus.op_class_0::IntDiv           31      0.00%     61.75% # Class of committed instruction
system.cpu_cluster.cpus.op_class_0::FloatAdd         1848      0.00%     61.75% # Class of committed instruction
system.cpu_cluster.cpus.op_class_0::FloatCmp           12      0.00%     61.75% # Class of committed instruction
system.cpu_cluster.cpus.op_class_0::FloatCvt         1233      0.00%     61.75% # Class of committed instruction
system.cpu_cluster.cpus.op_class_0::FloatMult            0      0.00%     61.75% # Class of committed instruction
system.cpu_cluster.cpus.op_class_0::FloatMultAcc            0      0.00%     61.75% # Class of committed instruction
system.cpu_cluster.cpus.op_class_0::FloatDiv         1235      0.00%     61.75% # Class of committed instruction
system.cpu_cluster.cpus.op_class_0::FloatMisc         7637      0.00%     61.75% # Class of committed instruction
system.cpu_cluster.cpus.op_class_0::FloatSqrt            0      0.00%     61.75% # Class of committed instruction
system.cpu_cluster.cpus.op_class_0::SimdAdd         7088      0.00%     61.75% # Class of committed instruction
system.cpu_cluster.cpus.op_class_0::SimdAddAcc            0      0.00%     61.75% # Class of committed instruction
system.cpu_cluster.cpus.op_class_0::SimdAlu         7107      0.00%     61.75% # Class of committed instruction
system.cpu_cluster.cpus.op_class_0::SimdCmp         7662      0.00%     61.76% # Class of committed instruction
system.cpu_cluster.cpus.op_class_0::SimdCvt            2      0.00%     61.76% # Class of committed instruction
system.cpu_cluster.cpus.op_class_0::SimdMisc        54783      0.01%     61.77% # Class of committed instruction
system.cpu_cluster.cpus.op_class_0::SimdMult            0      0.00%     61.77% # Class of committed instruction
system.cpu_cluster.cpus.op_class_0::SimdMultAcc            0      0.00%     61.77% # Class of committed instruction
system.cpu_cluster.cpus.op_class_0::SimdShift            2      0.00%     61.77% # Class of committed instruction
system.cpu_cluster.cpus.op_class_0::SimdShiftAcc            0      0.00%     61.77% # Class of committed instruction
system.cpu_cluster.cpus.op_class_0::SimdDiv            0      0.00%     61.77% # Class of committed instruction
system.cpu_cluster.cpus.op_class_0::SimdSqrt            0      0.00%     61.77% # Class of committed instruction
system.cpu_cluster.cpus.op_class_0::SimdFloatAdd            0      0.00%     61.77% # Class of committed instruction
system.cpu_cluster.cpus.op_class_0::SimdFloatAlu            0      0.00%     61.77% # Class of committed instruction
system.cpu_cluster.cpus.op_class_0::SimdFloatCmp            0      0.00%     61.77% # Class of committed instruction
system.cpu_cluster.cpus.op_class_0::SimdFloatCvt            0      0.00%     61.77% # Class of committed instruction
system.cpu_cluster.cpus.op_class_0::SimdFloatDiv            0      0.00%     61.77% # Class of committed instruction
system.cpu_cluster.cpus.op_class_0::SimdFloatMisc            0      0.00%     61.77% # Class of committed instruction
system.cpu_cluster.cpus.op_class_0::SimdFloatMult            0      0.00%     61.77% # Class of committed instruction
system.cpu_cluster.cpus.op_class_0::SimdFloatMultAcc            0      0.00%     61.77% # Class of committed instruction
system.cpu_cluster.cpus.op_class_0::SimdFloatSqrt            0      0.00%     61.77% # Class of committed instruction
system.cpu_cluster.cpus.op_class_0::SimdReduceAdd            0      0.00%     61.77% # Class of committed instruction
system.cpu_cluster.cpus.op_class_0::SimdReduceAlu            0      0.00%     61.77% # Class of committed instruction
system.cpu_cluster.cpus.op_class_0::SimdReduceCmp            0      0.00%     61.77% # Class of committed instruction
system.cpu_cluster.cpus.op_class_0::SimdFloatReduceAdd            0      0.00%     61.77% # Class of committed instruction
system.cpu_cluster.cpus.op_class_0::SimdFloatReduceCmp            0      0.00%     61.77% # Class of committed instruction
system.cpu_cluster.cpus.op_class_0::SimdAes            0      0.00%     61.77% # Class of committed instruction
system.cpu_cluster.cpus.op_class_0::SimdAesMix            0      0.00%     61.77% # Class of committed instruction
system.cpu_cluster.cpus.op_class_0::SimdSha1Hash            0      0.00%     61.77% # Class of committed instruction
system.cpu_cluster.cpus.op_class_0::SimdSha1Hash2            0      0.00%     61.77% # Class of committed instruction
system.cpu_cluster.cpus.op_class_0::SimdSha256Hash            0      0.00%     61.77% # Class of committed instruction
system.cpu_cluster.cpus.op_class_0::SimdSha256Hash2            0      0.00%     61.77% # Class of committed instruction
system.cpu_cluster.cpus.op_class_0::SimdShaSigma2            0      0.00%     61.77% # Class of committed instruction
system.cpu_cluster.cpus.op_class_0::SimdShaSigma3            0      0.00%     61.77% # Class of committed instruction
system.cpu_cluster.cpus.op_class_0::SimdPredAlu            0      0.00%     61.77% # Class of committed instruction
system.cpu_cluster.cpus.op_class_0::MemRead    100774984     24.56%     86.33% # Class of committed instruction
system.cpu_cluster.cpus.op_class_0::MemWrite     56118016     13.67%    100.00% # Class of committed instruction
system.cpu_cluster.cpus.op_class_0::FloatMemRead            0      0.00%    100.00% # Class of committed instruction
system.cpu_cluster.cpus.op_class_0::FloatMemWrite            0      0.00%    100.00% # Class of committed instruction
system.cpu_cluster.cpus.op_class_0::IprAccess            0      0.00%    100.00% # Class of committed instruction
system.cpu_cluster.cpus.op_class_0::InstPrefetch            0      0.00%    100.00% # Class of committed instruction
system.cpu_cluster.cpus.op_class_0::total    410388816                       # Class of committed instruction
system.cpu_cluster.cpus.tickCycles          449250549                       # Number of cycles that the object actually ticked
system.cpu_cluster.cpus.workload.numSyscalls         2519                       # Number of system calls
system.membus.snoop_filter.hit_multi_requests            2                       # Number of requests hitting in the snoop filter with multiple (>1) holders of the requested data.
system.membus.snoop_filter.hit_multi_snoops            0                       # Number of snoops hitting in the snoop filter with multiple (>1) holders of the requested data.
system.membus.snoop_filter.hit_single_requests        62489                       # Number of requests hitting in the snoop filter with a single holder of the requested data.
system.membus.snoop_filter.hit_single_snoops            0                       # Number of snoops hitting in the snoop filter with a single holder of the requested data.
system.membus.snoop_filter.tot_requests        126001                       # Total number of requests made to the snoop filter.
system.membus.snoop_filter.tot_snoops               0                       # Total number of snoops made to the snoop filter.
system.membus.pwrStateResidencyTicks::UNDEFINED 292138217500                       # Cumulative time (in ticks) in various power states
system.membus.trans_dist::ReadResp              59854                       # Transaction distribution
system.membus.trans_dist::WritebackDirty         5028                       # Transaction distribution
system.membus.trans_dist::CleanEvict            57460                       # Transaction distribution
system.membus.trans_dist::ReadExReq              3573                       # Transaction distribution
system.membus.trans_dist::ReadExResp             3573                       # Transaction distribution
system.membus.trans_dist::ReadCleanReq          55169                       # Transaction distribution
system.membus.trans_dist::ReadSharedReq          4686                       # Transaction distribution
system.membus.trans_dist::InvalidateReq            85                       # Transaction distribution
system.membus.pkt_count_system.cpu_cluster.cpus.icache.mem_side::system.mem_ctrls.port       164993                       # Packet count per connected master and slave (bytes)
system.membus.pkt_count_system.cpu_cluster.cpus.icache.mem_side::total       164993                       # Packet count per connected master and slave (bytes)
system.membus.pkt_count_system.cpu_cluster.cpus.dcache.mem_side::system.mem_ctrls.port        24435                       # Packet count per connected master and slave (bytes)
system.membus.pkt_count_system.cpu_cluster.cpus.dcache.mem_side::total        24435                       # Packet count per connected master and slave (bytes)
system.membus.pkt_count::total                 189428                       # Packet count per connected master and slave (bytes)
system.membus.pkt_size_system.cpu_cluster.cpus.icache.mem_side::system.mem_ctrls.port      3530752                       # Cumulative packet size per connected master and slave (bytes)
system.membus.pkt_size_system.cpu_cluster.cpus.icache.mem_side::total      3530752                       # Cumulative packet size per connected master and slave (bytes)
system.membus.pkt_size_system.cpu_cluster.cpus.dcache.mem_side::system.mem_ctrls.port       850368                       # Cumulative packet size per connected master and slave (bytes)
system.membus.pkt_size_system.cpu_cluster.cpus.dcache.mem_side::total       850368                       # Cumulative packet size per connected master and slave (bytes)
system.membus.pkt_size::total                 4381120                       # Cumulative packet size per connected master and slave (bytes)
system.membus.snoops                                0                       # Total snoops (count)
system.membus.snoopTraffic                          0                       # Total snoop traffic (bytes)
system.membus.snoop_fanout::samples             63513                       # Request fanout histogram
system.membus.snoop_fanout::mean             0.000047                       # Request fanout histogram
system.membus.snoop_fanout::stdev            0.006873                       # Request fanout histogram
system.membus.snoop_fanout::underflows              0      0.00%      0.00% # Request fanout histogram
system.membus.snoop_fanout::0                   63510    100.00%    100.00% # Request fanout histogram
system.membus.snoop_fanout::1                       3      0.00%    100.00% # Request fanout histogram
system.membus.snoop_fanout::2                       0      0.00%    100.00% # Request fanout histogram
system.membus.snoop_fanout::overflows               0      0.00%    100.00% # Request fanout histogram
system.membus.snoop_fanout::min_value               0                       # Request fanout histogram
system.membus.snoop_fanout::max_value               1                       # Request fanout histogram
system.membus.snoop_fanout::total               63513                       # Request fanout histogram
system.membus.reqLayer0.occupancy           202248375                       # Layer occupancy (ticks)
system.membus.reqLayer0.utilization               0.1                       # Layer utilization (%)
system.membus.badaddr_responder.pwrStateResidencyTicks::UNDEFINED 292138217500                       # Cumulative time (in ticks) in various power states
system.membus.respLayer1.occupancy          316680300                       # Layer occupancy (ticks)
system.membus.respLayer1.utilization              0.1                       # Layer utilization (%)
system.membus.respLayer2.occupancy           47098935                       # Layer occupancy (ticks)
system.membus.respLayer2.utilization              0.0                       # Layer utilization (%)
system.voltage_domain.voltage                       1                       # Voltage in Volts
system.clk_domain.clock                          1000                       # Clock period in ticks
system.cpu_cluster.voltage_domain.voltage            1                       # Voltage in Volts
system.cpu_cluster.clk_domain.clock               625                       # Clock period in ticks
system.cpu_cluster.cpus.pwrStateResidencyTicks::ON 292138217500                       # Cumulative time (in ticks) in various power states
system.cpu_cluster.cpus.icache.pwrStateResidencyTicks::UNDEFINED 292138217500                       # Cumulative time (in ticks) in various power states
system.cpu_cluster.cpus.icache.demand_hits::.cpu_cluster.cpus.inst     62443591                       # number of demand (read+write) hits
system.cpu_cluster.cpus.icache.demand_hits::total     62443591                       # number of demand (read+write) hits
system.cpu_cluster.cpus.icache.overall_hits::.cpu_cluster.cpus.inst     62443591                       # number of overall hits
system.cpu_cluster.cpus.icache.overall_hits::total     62443591                       # number of overall hits
system.cpu_cluster.cpus.icache.demand_misses::.cpu_cluster.cpus.inst        55169                       # number of demand (read+write) misses
system.cpu_cluster.cpus.icache.demand_misses::total        55169                       # number of demand (read+write) misses
system.cpu_cluster.cpus.icache.overall_misses::.cpu_cluster.cpus.inst        55169                       # number of overall misses
system.cpu_cluster.cpus.icache.overall_misses::total        55169                       # number of overall misses
system.cpu_cluster.cpus.icache.demand_miss_latency::.cpu_cluster.cpus.inst   4037480000                       # number of demand (read+write) miss cycles
system.cpu_cluster.cpus.icache.demand_miss_latency::total   4037480000                       # number of demand (read+write) miss cycles
system.cpu_cluster.cpus.icache.overall_miss_latency::.cpu_cluster.cpus.inst   4037480000                       # number of overall miss cycles
system.cpu_cluster.cpus.icache.overall_miss_latency::total   4037480000                       # number of overall miss cycles
system.cpu_cluster.cpus.icache.demand_accesses::.cpu_cluster.cpus.inst     62498760                       # number of demand (read+write) accesses
system.cpu_cluster.cpus.icache.demand_accesses::total     62498760                       # number of demand (read+write) accesses
system.cpu_cluster.cpus.icache.overall_accesses::.cpu_cluster.cpus.inst     62498760                       # number of overall (read+write) accesses
system.cpu_cluster.cpus.icache.overall_accesses::total     62498760                       # number of overall (read+write) accesses
system.cpu_cluster.cpus.icache.demand_miss_rate::.cpu_cluster.cpus.inst     0.000883                       # miss rate for demand accesses
system.cpu_cluster.cpus.icache.demand_miss_rate::total     0.000883                       # miss rate for demand accesses
system.cpu_cluster.cpus.icache.overall_miss_rate::.cpu_cluster.cpus.inst     0.000883                       # miss rate for overall accesses
system.cpu_cluster.cpus.icache.overall_miss_rate::total     0.000883                       # miss rate for overall accesses
system.cpu_cluster.cpus.icache.demand_avg_miss_latency::.cpu_cluster.cpus.inst 73183.853251                       # average overall miss latency
system.cpu_cluster.cpus.icache.demand_avg_miss_latency::total 73183.853251                       # average overall miss latency
system.cpu_cluster.cpus.icache.overall_avg_miss_latency::.cpu_cluster.cpus.inst 73183.853251                       # average overall miss latency
system.cpu_cluster.cpus.icache.overall_avg_miss_latency::total 73183.853251                       # average overall miss latency
system.cpu_cluster.cpus.icache.blocked_cycles::no_mshrs            0                       # number of cycles access was blocked
system.cpu_cluster.cpus.icache.blocked_cycles::no_targets            0                       # number of cycles access was blocked
system.cpu_cluster.cpus.icache.blocked::no_mshrs            0                       # number of cycles access was blocked
system.cpu_cluster.cpus.icache.blocked::no_targets            0                       # number of cycles access was blocked
system.cpu_cluster.cpus.icache.avg_blocked_cycles::no_mshrs          nan                       # average number of cycles each access was blocked
system.cpu_cluster.cpus.icache.avg_blocked_cycles::no_targets          nan                       # average number of cycles each access was blocked
system.cpu_cluster.cpus.icache.demand_mshr_misses::.cpu_cluster.cpus.inst        55169                       # number of demand (read+write) MSHR misses
system.cpu_cluster.cpus.icache.demand_mshr_misses::total        55169                       # number of demand (read+write) MSHR misses
system.cpu_cluster.cpus.icache.overall_mshr_misses::.cpu_cluster.cpus.inst        55169                       # number of overall MSHR misses
system.cpu_cluster.cpus.icache.overall_mshr_misses::total        55169                       # number of overall MSHR misses
system.cpu_cluster.cpus.icache.demand_mshr_miss_latency::.cpu_cluster.cpus.inst   3952443250                       # number of demand (read+write) MSHR miss cycles
system.cpu_cluster.cpus.icache.demand_mshr_miss_latency::total   3952443250                       # number of demand (read+write) MSHR miss cycles
system.cpu_cluster.cpus.icache.overall_mshr_miss_latency::.cpu_cluster.cpus.inst   3952443250                       # number of overall MSHR miss cycles
system.cpu_cluster.cpus.icache.overall_mshr_miss_latency::total   3952443250                       # number of overall MSHR miss cycles
system.cpu_cluster.cpus.icache.demand_mshr_miss_rate::.cpu_cluster.cpus.inst     0.000883                       # mshr miss rate for demand accesses
system.cpu_cluster.cpus.icache.demand_mshr_miss_rate::total     0.000883                       # mshr miss rate for demand accesses
system.cpu_cluster.cpus.icache.overall_mshr_miss_rate::.cpu_cluster.cpus.inst     0.000883                       # mshr miss rate for overall accesses
system.cpu_cluster.cpus.icache.overall_mshr_miss_rate::total     0.000883                       # mshr miss rate for overall accesses
system.cpu_cluster.cpus.icache.demand_avg_mshr_miss_latency::.cpu_cluster.cpus.inst 71642.466784                       # average overall mshr miss latency
system.cpu_cluster.cpus.icache.demand_avg_mshr_miss_latency::total 71642.466784                       # average overall mshr miss latency
system.cpu_cluster.cpus.icache.overall_avg_mshr_miss_latency::.cpu_cluster.cpus.inst 71642.466784                       # average overall mshr miss latency
system.cpu_cluster.cpus.icache.overall_avg_mshr_miss_latency::total 71642.466784                       # average overall mshr miss latency
system.cpu_cluster.cpus.icache.replacements        54656                       # number of replacements
system.cpu_cluster.cpus.icache.ReadReq_hits::.cpu_cluster.cpus.inst     62443591                       # number of ReadReq hits
system.cpu_cluster.cpus.icache.ReadReq_hits::total     62443591                       # number of ReadReq hits
system.cpu_cluster.cpus.icache.ReadReq_misses::.cpu_cluster.cpus.inst        55169                       # number of ReadReq misses
system.cpu_cluster.cpus.icache.ReadReq_misses::total        55169                       # number of ReadReq misses
system.cpu_cluster.cpus.icache.ReadReq_miss_latency::.cpu_cluster.cpus.inst   4037480000                       # number of ReadReq miss cycles
system.cpu_cluster.cpus.icache.ReadReq_miss_latency::total   4037480000                       # number of ReadReq miss cycles
system.cpu_cluster.cpus.icache.ReadReq_accesses::.cpu_cluster.cpus.inst     62498760                       # number of ReadReq accesses(hits+misses)
system.cpu_cluster.cpus.icache.ReadReq_accesses::total     62498760                       # number of ReadReq accesses(hits+misses)
system.cpu_cluster.cpus.icache.ReadReq_miss_rate::.cpu_cluster.cpus.inst     0.000883                       # miss rate for ReadReq accesses
system.cpu_cluster.cpus.icache.ReadReq_miss_rate::total     0.000883                       # miss rate for ReadReq accesses
system.cpu_cluster.cpus.icache.ReadReq_avg_miss_latency::.cpu_cluster.cpus.inst 73183.853251                       # average ReadReq miss latency
system.cpu_cluster.cpus.icache.ReadReq_avg_miss_latency::total 73183.853251                       # average ReadReq miss latency
system.cpu_cluster.cpus.icache.ReadReq_mshr_misses::.cpu_cluster.cpus.inst        55169                       # number of ReadReq MSHR misses
system.cpu_cluster.cpus.icache.ReadReq_mshr_misses::total        55169                       # number of ReadReq MSHR misses
system.cpu_cluster.cpus.icache.ReadReq_mshr_miss_latency::.cpu_cluster.cpus.inst   3952443250                       # number of ReadReq MSHR miss cycles
system.cpu_cluster.cpus.icache.ReadReq_mshr_miss_latency::total   3952443250                       # number of ReadReq MSHR miss cycles
system.cpu_cluster.cpus.icache.ReadReq_mshr_miss_rate::.cpu_cluster.cpus.inst     0.000883                       # mshr miss rate for ReadReq accesses
system.cpu_cluster.cpus.icache.ReadReq_mshr_miss_rate::total     0.000883                       # mshr miss rate for ReadReq accesses
system.cpu_cluster.cpus.icache.ReadReq_avg_mshr_miss_latency::.cpu_cluster.cpus.inst 71642.466784                       # average ReadReq mshr miss latency
system.cpu_cluster.cpus.icache.ReadReq_avg_mshr_miss_latency::total 71642.466784                       # average ReadReq mshr miss latency
system.cpu_cluster.cpus.icache.tags.pwrStateResidencyTicks::UNDEFINED 292138217500                       # Cumulative time (in ticks) in various power states
system.cpu_cluster.cpus.icache.tags.tagsinuse   509.898382                       # Cycle average of tags in use
system.cpu_cluster.cpus.icache.tags.total_refs     62498759                       # Total number of references to valid blocks.
system.cpu_cluster.cpus.icache.tags.sampled_refs        55168                       # Sample count of references to valid blocks.
system.cpu_cluster.cpus.icache.tags.avg_refs  1132.880637                       # Average number of references to valid blocks.
system.cpu_cluster.cpus.icache.tags.warmup_cycle        93000                       # Cycle when the warmup percentage was hit.
system.cpu_cluster.cpus.icache.tags.occ_blocks::.cpu_cluster.cpus.inst   509.898382                       # Average occupied blocks per requestor
system.cpu_cluster.cpus.icache.tags.occ_percent::.cpu_cluster.cpus.inst     0.995895                       # Average percentage of cache occupancy
system.cpu_cluster.cpus.icache.tags.occ_percent::total     0.995895                       # Average percentage of cache occupancy
system.cpu_cluster.cpus.icache.tags.occ_task_id_blocks::1024          512                       # Occupied blocks per task id
system.cpu_cluster.cpus.icache.tags.age_task_id_blocks_1024::0           91                       # Occupied blocks per task id
system.cpu_cluster.cpus.icache.tags.age_task_id_blocks_1024::1          262                       # Occupied blocks per task id
system.cpu_cluster.cpus.icache.tags.age_task_id_blocks_1024::2            6                       # Occupied blocks per task id
system.cpu_cluster.cpus.icache.tags.age_task_id_blocks_1024::3           36                       # Occupied blocks per task id
system.cpu_cluster.cpus.icache.tags.age_task_id_blocks_1024::4          117                       # Occupied blocks per task id
system.cpu_cluster.cpus.icache.tags.occ_task_id_percent::1024            1                       # Percentage of cache occupancy per task id
system.cpu_cluster.cpus.icache.tags.tag_accesses    125052688                       # Number of tag accesses
system.cpu_cluster.cpus.icache.tags.data_accesses    125052688                       # Number of data accesses
system.cpu_cluster.cpus.dtb.walker.pwrStateResidencyTicks::UNDEFINED 292138217500                       # Cumulative time (in ticks) in various power states
system.cpu_cluster.cpus.dtb.stage2_mmu.stage2_tlb.walker.pwrStateResidencyTicks::UNDEFINED 292138217500                       # Cumulative time (in ticks) in various power states
system.cpu_cluster.cpus.dcache.pwrStateResidencyTicks::UNDEFINED 292138217500                       # Cumulative time (in ticks) in various power states
system.cpu_cluster.cpus.dcache.demand_hits::.cpu_cluster.cpus.data    157794690                       # number of demand (read+write) hits
system.cpu_cluster.cpus.dcache.demand_hits::total    157794690                       # number of demand (read+write) hits
system.cpu_cluster.cpus.dcache.overall_hits::.cpu_cluster.cpus.data    157794690                       # number of overall hits
system.cpu_cluster.cpus.dcache.overall_hits::total    157794690                       # number of overall hits
system.cpu_cluster.cpus.dcache.demand_misses::.cpu_cluster.cpus.data        10367                       # number of demand (read+write) misses
system.cpu_cluster.cpus.dcache.demand_misses::total        10367                       # number of demand (read+write) misses
system.cpu_cluster.cpus.dcache.overall_misses::.cpu_cluster.cpus.data        10367                       # number of overall misses
system.cpu_cluster.cpus.dcache.overall_misses::total        10367                       # number of overall misses
system.cpu_cluster.cpus.dcache.demand_miss_latency::.cpu_cluster.cpus.data    761217875                       # number of demand (read+write) miss cycles
system.cpu_cluster.cpus.dcache.demand_miss_latency::total    761217875                       # number of demand (read+write) miss cycles
system.cpu_cluster.cpus.dcache.overall_miss_latency::.cpu_cluster.cpus.data    761217875                       # number of overall miss cycles
system.cpu_cluster.cpus.dcache.overall_miss_latency::total    761217875                       # number of overall miss cycles
system.cpu_cluster.cpus.dcache.demand_accesses::.cpu_cluster.cpus.data    157805057                       # number of demand (read+write) accesses
system.cpu_cluster.cpus.dcache.demand_accesses::total    157805057                       # number of demand (read+write) accesses
system.cpu_cluster.cpus.dcache.overall_accesses::.cpu_cluster.cpus.data    157805057                       # number of overall (read+write) accesses
system.cpu_cluster.cpus.dcache.overall_accesses::total    157805057                       # number of overall (read+write) accesses
system.cpu_cluster.cpus.dcache.demand_miss_rate::.cpu_cluster.cpus.data     0.000066                       # miss rate for demand accesses
system.cpu_cluster.cpus.dcache.demand_miss_rate::total     0.000066                       # miss rate for demand accesses
system.cpu_cluster.cpus.dcache.overall_miss_rate::.cpu_cluster.cpus.data     0.000066                       # miss rate for overall accesses
system.cpu_cluster.cpus.dcache.overall_miss_rate::total     0.000066                       # miss rate for overall accesses
system.cpu_cluster.cpus.dcache.demand_avg_miss_latency::.cpu_cluster.cpus.data 73427.016012                       # average overall miss latency
system.cpu_cluster.cpus.dcache.demand_avg_miss_latency::total 73427.016012                       # average overall miss latency
system.cpu_cluster.cpus.dcache.overall_avg_miss_latency::.cpu_cluster.cpus.data 73427.016012                       # average overall miss latency
system.cpu_cluster.cpus.dcache.overall_avg_miss_latency::total 73427.016012                       # average overall miss latency
system.cpu_cluster.cpus.dcache.blocked_cycles::no_mshrs            0                       # number of cycles access was blocked
system.cpu_cluster.cpus.dcache.blocked_cycles::no_targets            0                       # number of cycles access was blocked
system.cpu_cluster.cpus.dcache.blocked::no_mshrs            0                       # number of cycles access was blocked
system.cpu_cluster.cpus.dcache.blocked::no_targets            0                       # number of cycles access was blocked
system.cpu_cluster.cpus.dcache.avg_blocked_cycles::no_mshrs          nan                       # average number of cycles each access was blocked
system.cpu_cluster.cpus.dcache.avg_blocked_cycles::no_targets          nan                       # average number of cycles each access was blocked
system.cpu_cluster.cpus.dcache.writebacks::.writebacks         5028                       # number of writebacks
system.cpu_cluster.cpus.dcache.writebacks::total         5028                       # number of writebacks
system.cpu_cluster.cpus.dcache.demand_mshr_hits::.cpu_cluster.cpus.data         2026                       # number of demand (read+write) MSHR hits
system.cpu_cluster.cpus.dcache.demand_mshr_hits::total         2026                       # number of demand (read+write) MSHR hits
system.cpu_cluster.cpus.dcache.overall_mshr_hits::.cpu_cluster.cpus.data         2026                       # number of overall MSHR hits
system.cpu_cluster.cpus.dcache.overall_mshr_hits::total         2026                       # number of overall MSHR hits
system.cpu_cluster.cpus.dcache.demand_mshr_misses::.cpu_cluster.cpus.data         8341                       # number of demand (read+write) MSHR misses
system.cpu_cluster.cpus.dcache.demand_mshr_misses::total         8341                       # number of demand (read+write) MSHR misses
system.cpu_cluster.cpus.dcache.overall_mshr_misses::.cpu_cluster.cpus.data         8341                       # number of overall MSHR misses
system.cpu_cluster.cpus.dcache.overall_mshr_misses::total         8341                       # number of overall MSHR misses
system.cpu_cluster.cpus.dcache.demand_mshr_miss_latency::.cpu_cluster.cpus.data    619313875                       # number of demand (read+write) MSHR miss cycles
system.cpu_cluster.cpus.dcache.demand_mshr_miss_latency::total    619313875                       # number of demand (read+write) MSHR miss cycles
system.cpu_cluster.cpus.dcache.overall_mshr_miss_latency::.cpu_cluster.cpus.data    619313875                       # number of overall MSHR miss cycles
system.cpu_cluster.cpus.dcache.overall_mshr_miss_latency::total    619313875                       # number of overall MSHR miss cycles
system.cpu_cluster.cpus.dcache.demand_mshr_miss_rate::.cpu_cluster.cpus.data     0.000053                       # mshr miss rate for demand accesses
system.cpu_cluster.cpus.dcache.demand_mshr_miss_rate::total     0.000053                       # mshr miss rate for demand accesses
system.cpu_cluster.cpus.dcache.overall_mshr_miss_rate::.cpu_cluster.cpus.data     0.000053                       # mshr miss rate for overall accesses
system.cpu_cluster.cpus.dcache.overall_mshr_miss_rate::total     0.000053                       # mshr miss rate for overall accesses
system.cpu_cluster.cpus.dcache.demand_avg_mshr_miss_latency::.cpu_cluster.cpus.data 74249.355593                       # average overall mshr miss latency
system.cpu_cluster.cpus.dcache.demand_avg_mshr_miss_latency::total 74249.355593                       # average overall mshr miss latency
system.cpu_cluster.cpus.dcache.overall_avg_mshr_miss_latency::.cpu_cluster.cpus.data 74249.355593                       # average overall mshr miss latency
system.cpu_cluster.cpus.dcache.overall_avg_mshr_miss_latency::total 74249.355593                       # average overall mshr miss latency
system.cpu_cluster.cpus.dcache.replacements         7832                       # number of replacements
system.cpu_cluster.cpus.dcache.ReadReq_hits::.cpu_cluster.cpus.data    101682475                       # number of ReadReq hits
system.cpu_cluster.cpus.dcache.ReadReq_hits::total    101682475                       # number of ReadReq hits
system.cpu_cluster.cpus.dcache.ReadReq_misses::.cpu_cluster.cpus.data         4718                       # number of ReadReq misses
system.cpu_cluster.cpus.dcache.ReadReq_misses::total         4718                       # number of ReadReq misses
system.cpu_cluster.cpus.dcache.ReadReq_miss_latency::.cpu_cluster.cpus.data    366254250                       # number of ReadReq miss cycles
system.cpu_cluster.cpus.dcache.ReadReq_miss_latency::total    366254250                       # number of ReadReq miss cycles
system.cpu_cluster.cpus.dcache.ReadReq_accesses::.cpu_cluster.cpus.data    101687193                       # number of ReadReq accesses(hits+misses)
system.cpu_cluster.cpus.dcache.ReadReq_accesses::total    101687193                       # number of ReadReq accesses(hits+misses)
system.cpu_cluster.cpus.dcache.ReadReq_miss_rate::.cpu_cluster.cpus.data     0.000046                       # miss rate for ReadReq accesses
system.cpu_cluster.cpus.dcache.ReadReq_miss_rate::total     0.000046                       # miss rate for ReadReq accesses
system.cpu_cluster.cpus.dcache.ReadReq_avg_miss_latency::.cpu_cluster.cpus.data 77629.133107                       # average ReadReq miss latency
system.cpu_cluster.cpus.dcache.ReadReq_avg_miss_latency::total 77629.133107                       # average ReadReq miss latency
system.cpu_cluster.cpus.dcache.ReadReq_mshr_hits::.cpu_cluster.cpus.data           17                       # number of ReadReq MSHR hits
system.cpu_cluster.cpus.dcache.ReadReq_mshr_hits::total           17                       # number of ReadReq MSHR hits
system.cpu_cluster.cpus.dcache.ReadReq_mshr_misses::.cpu_cluster.cpus.data         4701                       # number of ReadReq MSHR misses
system.cpu_cluster.cpus.dcache.ReadReq_mshr_misses::total         4701                       # number of ReadReq MSHR misses
system.cpu_cluster.cpus.dcache.ReadReq_mshr_miss_latency::.cpu_cluster.cpus.data    358016750                       # number of ReadReq MSHR miss cycles
system.cpu_cluster.cpus.dcache.ReadReq_mshr_miss_latency::total    358016750                       # number of ReadReq MSHR miss cycles
system.cpu_cluster.cpus.dcache.ReadReq_mshr_miss_rate::.cpu_cluster.cpus.data     0.000046                       # mshr miss rate for ReadReq accesses
system.cpu_cluster.cpus.dcache.ReadReq_mshr_miss_rate::total     0.000046                       # mshr miss rate for ReadReq accesses
system.cpu_cluster.cpus.dcache.ReadReq_avg_mshr_miss_latency::.cpu_cluster.cpus.data 76157.572857                       # average ReadReq mshr miss latency
system.cpu_cluster.cpus.dcache.ReadReq_avg_mshr_miss_latency::total 76157.572857                       # average ReadReq mshr miss latency
system.cpu_cluster.cpus.dcache.WriteReq_hits::.cpu_cluster.cpus.data     56112211                       # number of WriteReq hits
system.cpu_cluster.cpus.dcache.WriteReq_hits::total     56112211                       # number of WriteReq hits
system.cpu_cluster.cpus.dcache.WriteReq_misses::.cpu_cluster.cpus.data         5564                       # number of WriteReq misses
system.cpu_cluster.cpus.dcache.WriteReq_misses::total         5564                       # number of WriteReq misses
system.cpu_cluster.cpus.dcache.WriteReq_miss_latency::.cpu_cluster.cpus.data    393794250                       # number of WriteReq miss cycles
system.cpu_cluster.cpus.dcache.WriteReq_miss_latency::total    393794250                       # number of WriteReq miss cycles
system.cpu_cluster.cpus.dcache.WriteReq_accesses::.cpu_cluster.cpus.data     56117775                       # number of WriteReq accesses(hits+misses)
system.cpu_cluster.cpus.dcache.WriteReq_accesses::total     56117775                       # number of WriteReq accesses(hits+misses)
system.cpu_cluster.cpus.dcache.WriteReq_miss_rate::.cpu_cluster.cpus.data     0.000099                       # miss rate for WriteReq accesses
system.cpu_cluster.cpus.dcache.WriteReq_miss_rate::total     0.000099                       # miss rate for WriteReq accesses
system.cpu_cluster.cpus.dcache.WriteReq_avg_miss_latency::.cpu_cluster.cpus.data 70775.386413                       # average WriteReq miss latency
system.cpu_cluster.cpus.dcache.WriteReq_avg_miss_latency::total 70775.386413                       # average WriteReq miss latency
system.cpu_cluster.cpus.dcache.WriteReq_mshr_hits::.cpu_cluster.cpus.data         2009                       # number of WriteReq MSHR hits
system.cpu_cluster.cpus.dcache.WriteReq_mshr_hits::total         2009                       # number of WriteReq MSHR hits
system.cpu_cluster.cpus.dcache.WriteReq_mshr_misses::.cpu_cluster.cpus.data         3555                       # number of WriteReq MSHR misses
system.cpu_cluster.cpus.dcache.WriteReq_mshr_misses::total         3555                       # number of WriteReq MSHR misses
system.cpu_cluster.cpus.dcache.WriteReq_mshr_miss_latency::.cpu_cluster.cpus.data    260254875                       # number of WriteReq MSHR miss cycles
system.cpu_cluster.cpus.dcache.WriteReq_mshr_miss_latency::total    260254875                       # number of WriteReq MSHR miss cycles
system.cpu_cluster.cpus.dcache.WriteReq_mshr_miss_rate::.cpu_cluster.cpus.data     0.000063                       # mshr miss rate for WriteReq accesses
system.cpu_cluster.cpus.dcache.WriteReq_mshr_miss_rate::total     0.000063                       # mshr miss rate for WriteReq accesses
system.cpu_cluster.cpus.dcache.WriteReq_avg_mshr_miss_latency::.cpu_cluster.cpus.data 73208.122363                       # average WriteReq mshr miss latency
system.cpu_cluster.cpus.dcache.WriteReq_avg_mshr_miss_latency::total 73208.122363                       # average WriteReq mshr miss latency
system.cpu_cluster.cpus.dcache.WriteLineReq_hits::.cpu_cluster.cpus.data            4                       # number of WriteLineReq hits
system.cpu_cluster.cpus.dcache.WriteLineReq_hits::total            4                       # number of WriteLineReq hits
system.cpu_cluster.cpus.dcache.WriteLineReq_misses::.cpu_cluster.cpus.data           85                       # number of WriteLineReq misses
system.cpu_cluster.cpus.dcache.WriteLineReq_misses::total           85                       # number of WriteLineReq misses
system.cpu_cluster.cpus.dcache.WriteLineReq_miss_latency::.cpu_cluster.cpus.data      1169375                       # number of WriteLineReq miss cycles
system.cpu_cluster.cpus.dcache.WriteLineReq_miss_latency::total      1169375                       # number of WriteLineReq miss cycles
system.cpu_cluster.cpus.dcache.WriteLineReq_accesses::.cpu_cluster.cpus.data           89                       # number of WriteLineReq accesses(hits+misses)
system.cpu_cluster.cpus.dcache.WriteLineReq_accesses::total           89                       # number of WriteLineReq accesses(hits+misses)
system.cpu_cluster.cpus.dcache.WriteLineReq_miss_rate::.cpu_cluster.cpus.data     0.955056                       # miss rate for WriteLineReq accesses
system.cpu_cluster.cpus.dcache.WriteLineReq_miss_rate::total     0.955056                       # miss rate for WriteLineReq accesses
system.cpu_cluster.cpus.dcache.WriteLineReq_avg_miss_latency::.cpu_cluster.cpus.data 13757.352941                       # average WriteLineReq miss latency
system.cpu_cluster.cpus.dcache.WriteLineReq_avg_miss_latency::total 13757.352941                       # average WriteLineReq miss latency
system.cpu_cluster.cpus.dcache.WriteLineReq_mshr_misses::.cpu_cluster.cpus.data           85                       # number of WriteLineReq MSHR misses
system.cpu_cluster.cpus.dcache.WriteLineReq_mshr_misses::total           85                       # number of WriteLineReq MSHR misses
system.cpu_cluster.cpus.dcache.WriteLineReq_mshr_miss_latency::.cpu_cluster.cpus.data      1042250                       # number of WriteLineReq MSHR miss cycles
system.cpu_cluster.cpus.dcache.WriteLineReq_mshr_miss_latency::total      1042250                       # number of WriteLineReq MSHR miss cycles
system.cpu_cluster.cpus.dcache.WriteLineReq_mshr_miss_rate::.cpu_cluster.cpus.data     0.955056                       # mshr miss rate for WriteLineReq accesses
system.cpu_cluster.cpus.dcache.WriteLineReq_mshr_miss_rate::total     0.955056                       # mshr miss rate for WriteLineReq accesses
system.cpu_cluster.cpus.dcache.WriteLineReq_avg_mshr_miss_latency::.cpu_cluster.cpus.data 12261.764706                       # average WriteLineReq mshr miss latency
system.cpu_cluster.cpus.dcache.WriteLineReq_avg_mshr_miss_latency::total 12261.764706                       # average WriteLineReq mshr miss latency
system.cpu_cluster.cpus.dcache.LoadLockedReq_hits::.cpu_cluster.cpus.data           23                       # number of LoadLockedReq hits
system.cpu_cluster.cpus.dcache.LoadLockedReq_hits::total           23                       # number of LoadLockedReq hits
system.cpu_cluster.cpus.dcache.LoadLockedReq_misses::.cpu_cluster.cpus.data            1                       # number of LoadLockedReq misses
system.cpu_cluster.cpus.dcache.LoadLockedReq_misses::total            1                       # number of LoadLockedReq misses
system.cpu_cluster.cpus.dcache.LoadLockedReq_miss_latency::.cpu_cluster.cpus.data        78125                       # number of LoadLockedReq miss cycles
system.cpu_cluster.cpus.dcache.LoadLockedReq_miss_latency::total        78125                       # number of LoadLockedReq miss cycles
system.cpu_cluster.cpus.dcache.LoadLockedReq_accesses::.cpu_cluster.cpus.data           24                       # number of LoadLockedReq accesses(hits+misses)
system.cpu_cluster.cpus.dcache.LoadLockedReq_accesses::total           24                       # number of LoadLockedReq accesses(hits+misses)
system.cpu_cluster.cpus.dcache.LoadLockedReq_miss_rate::.cpu_cluster.cpus.data     0.041667                       # miss rate for LoadLockedReq accesses
system.cpu_cluster.cpus.dcache.LoadLockedReq_miss_rate::total     0.041667                       # miss rate for LoadLockedReq accesses
system.cpu_cluster.cpus.dcache.LoadLockedReq_avg_miss_latency::.cpu_cluster.cpus.data        78125                       # average LoadLockedReq miss latency
system.cpu_cluster.cpus.dcache.LoadLockedReq_avg_miss_latency::total        78125                       # average LoadLockedReq miss latency
system.cpu_cluster.cpus.dcache.LoadLockedReq_mshr_misses::.cpu_cluster.cpus.data            1                       # number of LoadLockedReq MSHR misses
system.cpu_cluster.cpus.dcache.LoadLockedReq_mshr_misses::total            1                       # number of LoadLockedReq MSHR misses
system.cpu_cluster.cpus.dcache.LoadLockedReq_mshr_miss_latency::.cpu_cluster.cpus.data        76875                       # number of LoadLockedReq MSHR miss cycles
system.cpu_cluster.cpus.dcache.LoadLockedReq_mshr_miss_latency::total        76875                       # number of LoadLockedReq MSHR miss cycles
system.cpu_cluster.cpus.dcache.LoadLockedReq_mshr_miss_rate::.cpu_cluster.cpus.data     0.041667                       # mshr miss rate for LoadLockedReq accesses
system.cpu_cluster.cpus.dcache.LoadLockedReq_mshr_miss_rate::total     0.041667                       # mshr miss rate for LoadLockedReq accesses
system.cpu_cluster.cpus.dcache.LoadLockedReq_avg_mshr_miss_latency::.cpu_cluster.cpus.data        76875                       # average LoadLockedReq mshr miss latency
system.cpu_cluster.cpus.dcache.LoadLockedReq_avg_mshr_miss_latency::total        76875                       # average LoadLockedReq mshr miss latency
system.cpu_cluster.cpus.dcache.StoreCondReq_hits::.cpu_cluster.cpus.data           24                       # number of StoreCondReq hits
system.cpu_cluster.cpus.dcache.StoreCondReq_hits::total           24                       # number of StoreCondReq hits
system.cpu_cluster.cpus.dcache.StoreCondReq_accesses::.cpu_cluster.cpus.data           24                       # number of StoreCondReq accesses(hits+misses)
system.cpu_cluster.cpus.dcache.StoreCondReq_accesses::total           24                       # number of StoreCondReq accesses(hits+misses)
system.cpu_cluster.cpus.dcache.SwapReq_hits::.cpu_cluster.cpus.data          210                       # number of SwapReq hits
system.cpu_cluster.cpus.dcache.SwapReq_hits::total          210                       # number of SwapReq hits
system.cpu_cluster.cpus.dcache.SwapReq_misses::.cpu_cluster.cpus.data            2                       # number of SwapReq misses
system.cpu_cluster.cpus.dcache.SwapReq_misses::total            2                       # number of SwapReq misses
system.cpu_cluster.cpus.dcache.SwapReq_miss_latency::.cpu_cluster.cpus.data       175000                       # number of SwapReq miss cycles
system.cpu_cluster.cpus.dcache.SwapReq_miss_latency::total       175000                       # number of SwapReq miss cycles
system.cpu_cluster.cpus.dcache.SwapReq_accesses::.cpu_cluster.cpus.data          212                       # number of SwapReq accesses(hits+misses)
system.cpu_cluster.cpus.dcache.SwapReq_accesses::total          212                       # number of SwapReq accesses(hits+misses)
system.cpu_cluster.cpus.dcache.SwapReq_miss_rate::.cpu_cluster.cpus.data     0.009434                       # miss rate for SwapReq accesses
system.cpu_cluster.cpus.dcache.SwapReq_miss_rate::total     0.009434                       # miss rate for SwapReq accesses
system.cpu_cluster.cpus.dcache.SwapReq_avg_miss_latency::.cpu_cluster.cpus.data        87500                       # average SwapReq miss latency
system.cpu_cluster.cpus.dcache.SwapReq_avg_miss_latency::total        87500                       # average SwapReq miss latency
system.cpu_cluster.cpus.dcache.SwapReq_mshr_misses::.cpu_cluster.cpus.data            2                       # number of SwapReq MSHR misses
system.cpu_cluster.cpus.dcache.SwapReq_mshr_misses::total            2                       # number of SwapReq MSHR misses
system.cpu_cluster.cpus.dcache.SwapReq_mshr_miss_latency::.cpu_cluster.cpus.data       172000                       # number of SwapReq MSHR miss cycles
system.cpu_cluster.cpus.dcache.SwapReq_mshr_miss_latency::total       172000                       # number of SwapReq MSHR miss cycles
system.cpu_cluster.cpus.dcache.SwapReq_mshr_miss_rate::.cpu_cluster.cpus.data     0.009434                       # mshr miss rate for SwapReq accesses
system.cpu_cluster.cpus.dcache.SwapReq_mshr_miss_rate::total     0.009434                       # mshr miss rate for SwapReq accesses
system.cpu_cluster.cpus.dcache.SwapReq_avg_mshr_miss_latency::.cpu_cluster.cpus.data        86000                       # average SwapReq mshr miss latency
system.cpu_cluster.cpus.dcache.SwapReq_avg_mshr_miss_latency::total        86000                       # average SwapReq mshr miss latency
system.cpu_cluster.cpus.dcache.tags.pwrStateResidencyTicks::UNDEFINED 292138217500                       # Cumulative time (in ticks) in various power states
system.cpu_cluster.cpus.dcache.tags.tagsinuse   511.818286                       # Cycle average of tags in use
system.cpu_cluster.cpus.dcache.tags.total_refs    157803291                       # Total number of references to valid blocks.
system.cpu_cluster.cpus.dcache.tags.sampled_refs         8344                       # Sample count of references to valid blocks.
system.cpu_cluster.cpus.dcache.tags.avg_refs 18912.187320                       # Average number of references to valid blocks.
system.cpu_cluster.cpus.dcache.tags.warmup_cycle       175000                       # Cycle when the warmup percentage was hit.
system.cpu_cluster.cpus.dcache.tags.occ_blocks::.cpu_cluster.cpus.data   511.818286                       # Average occupied blocks per requestor
system.cpu_cluster.cpus.dcache.tags.occ_percent::.cpu_cluster.cpus.data     0.999645                       # Average percentage of cache occupancy
system.cpu_cluster.cpus.dcache.tags.occ_percent::total     0.999645                       # Average percentage of cache occupancy
system.cpu_cluster.cpus.dcache.tags.occ_task_id_blocks::1024          512                       # Occupied blocks per task id
system.cpu_cluster.cpus.dcache.tags.age_task_id_blocks_1024::0           37                       # Occupied blocks per task id
system.cpu_cluster.cpus.dcache.tags.age_task_id_blocks_1024::1          367                       # Occupied blocks per task id
system.cpu_cluster.cpus.dcache.tags.age_task_id_blocks_1024::2           83                       # Occupied blocks per task id
system.cpu_cluster.cpus.dcache.tags.age_task_id_blocks_1024::3            7                       # Occupied blocks per task id
system.cpu_cluster.cpus.dcache.tags.age_task_id_blocks_1024::4           18                       # Occupied blocks per task id
system.cpu_cluster.cpus.dcache.tags.occ_task_id_percent::1024            1                       # Percentage of cache occupancy per task id
system.cpu_cluster.cpus.dcache.tags.tag_accesses    631229612                       # Number of tag accesses
system.cpu_cluster.cpus.dcache.tags.data_accesses    631229612                       # Number of data accesses
system.cpu_cluster.cpus.itb.walker.pwrStateResidencyTicks::UNDEFINED 292138217500                       # Cumulative time (in ticks) in various power states
system.cpu_cluster.cpus.itb.stage2_mmu.stage2_tlb.walker.pwrStateResidencyTicks::UNDEFINED 292138217500                       # Cumulative time (in ticks) in various power states
system.mem_ctrls.pwrStateResidencyTicks::UNDEFINED 292138217500                       # Cumulative time (in ticks) in various power states
system.mem_ctrls.bytes_read::.cpu_cluster.cpus.inst      3530752                       # Number of bytes read from this memory
system.mem_ctrls.bytes_read::.cpu_cluster.cpus.data       528576                       # Number of bytes read from this memory
system.mem_ctrls.bytes_read::total            4059328                       # Number of bytes read from this memory
system.mem_ctrls.bytes_inst_read::.cpu_cluster.cpus.inst      3530752                       # Number of instructions bytes read from this memory
system.mem_ctrls.bytes_inst_read::total       3530752                       # Number of instructions bytes read from this memory
system.mem_ctrls.bytes_written::.writebacks       321792                       # Number of bytes written to this memory
system.mem_ctrls.bytes_written::total          321792                       # Number of bytes written to this memory
system.mem_ctrls.num_reads::.cpu_cluster.cpus.inst        55168                       # Number of read requests responded to by this memory
system.mem_ctrls.num_reads::.cpu_cluster.cpus.data         8259                       # Number of read requests responded to by this memory
system.mem_ctrls.num_reads::total               63427                       # Number of read requests responded to by this memory
system.mem_ctrls.num_writes::.writebacks         5028                       # Number of write requests responded to by this memory
system.mem_ctrls.num_writes::total               5028                       # Number of write requests responded to by this memory
system.mem_ctrls.bw_read::.cpu_cluster.cpus.inst     12085896                       # Total read bandwidth from this memory (bytes/s)
system.mem_ctrls.bw_read::.cpu_cluster.cpus.data      1809335                       # Total read bandwidth from this memory (bytes/s)
system.mem_ctrls.bw_read::total              13895231                       # Total read bandwidth from this memory (bytes/s)
system.mem_ctrls.bw_inst_read::.cpu_cluster.cpus.inst     12085896                       # Instruction read bandwidth from this memory (bytes/s)
system.mem_ctrls.bw_inst_read::total         12085896                       # Instruction read bandwidth from this memory (bytes/s)
system.mem_ctrls.bw_write::.writebacks        1101506                       # Write bandwidth from this memory (bytes/s)
system.mem_ctrls.bw_write::total              1101506                       # Write bandwidth from this memory (bytes/s)
system.mem_ctrls.bw_total::.writebacks        1101506                       # Total bandwidth to/from this memory (bytes/s)
system.mem_ctrls.bw_total::.cpu_cluster.cpus.inst     12085896                       # Total bandwidth to/from this memory (bytes/s)
system.mem_ctrls.bw_total::.cpu_cluster.cpus.data      1809335                       # Total bandwidth to/from this memory (bytes/s)
system.mem_ctrls.bw_total::total             14996737                       # Total bandwidth to/from this memory (bytes/s)
system.mem_ctrls.avgPriority_.writebacks::samples      4969.00                       # Average QoS priority value for accepted requests
system.mem_ctrls.avgPriority_.cpu_cluster.cpus.inst::samples     55169.00                       # Average QoS priority value for accepted requests
system.mem_ctrls.avgPriority_.cpu_cluster.cpus.data::samples      8056.00                       # Average QoS priority value for accepted requests
system.mem_ctrls.priorityMinLatency      0.000000026250                       # per QoS priority minimum request to response latency (s)
system.mem_ctrls.priorityMaxLatency      0.141290178750                       # per QoS priority maximum request to response latency (s)
system.mem_ctrls.numReadWriteTurnArounds          293                       # Number of turnarounds from READ to WRITE
system.mem_ctrls.numWriteReadTurnArounds          293                       # Number of turnarounds from WRITE to READ
system.mem_ctrls.numStayReadState              206417                       # Number of times bus staying in READ state
system.mem_ctrls.numStayWriteState               4659                       # Number of times bus staying in WRITE state
system.mem_ctrls.readReqs                       63428                       # Number of read requests accepted
system.mem_ctrls.writeReqs                       5028                       # Number of write requests accepted
system.mem_ctrls.readBursts                     63428                       # Number of DRAM read bursts, including those serviced by the write queue
system.mem_ctrls.writeBursts                     5028                       # Number of DRAM write bursts, including those merged in the write queue
system.mem_ctrls.servicedByWrQ                    203                       # Number of DRAM read bursts serviced by the write queue
system.mem_ctrls.mergedWrBursts                    59                       # Number of DRAM write bursts merged with an existing one
system.mem_ctrls.neitherReadNorWriteReqs            0                       # Number of requests that are neither read nor write
system.mem_ctrls.perBankRdBursts::0              6045                       # Per bank write bursts
system.mem_ctrls.perBankRdBursts::1               865                       # Per bank write bursts
system.mem_ctrls.perBankRdBursts::2               873                       # Per bank write bursts
system.mem_ctrls.perBankRdBursts::3              3736                       # Per bank write bursts
system.mem_ctrls.perBankRdBursts::4              5232                       # Per bank write bursts
system.mem_ctrls.perBankRdBursts::5              8139                       # Per bank write bursts
system.mem_ctrls.perBankRdBursts::6               894                       # Per bank write bursts
system.mem_ctrls.perBankRdBursts::7              5097                       # Per bank write bursts
system.mem_ctrls.perBankRdBursts::8              1306                       # Per bank write bursts
system.mem_ctrls.perBankRdBursts::9               802                       # Per bank write bursts
system.mem_ctrls.perBankRdBursts::10              613                       # Per bank write bursts
system.mem_ctrls.perBankRdBursts::11             2875                       # Per bank write bursts
system.mem_ctrls.perBankRdBursts::12             8694                       # Per bank write bursts
system.mem_ctrls.perBankRdBursts::13             7076                       # Per bank write bursts
system.mem_ctrls.perBankRdBursts::14             1189                       # Per bank write bursts
system.mem_ctrls.perBankRdBursts::15             9789                       # Per bank write bursts
system.mem_ctrls.perBankWrBursts::0               317                       # Per bank write bursts
system.mem_ctrls.perBankWrBursts::1               329                       # Per bank write bursts
system.mem_ctrls.perBankWrBursts::2               343                       # Per bank write bursts
system.mem_ctrls.perBankWrBursts::3               309                       # Per bank write bursts
system.mem_ctrls.perBankWrBursts::4               309                       # Per bank write bursts
system.mem_ctrls.perBankWrBursts::5               353                       # Per bank write bursts
system.mem_ctrls.perBankWrBursts::6               314                       # Per bank write bursts
system.mem_ctrls.perBankWrBursts::7               262                       # Per bank write bursts
system.mem_ctrls.perBankWrBursts::8               298                       # Per bank write bursts
system.mem_ctrls.perBankWrBursts::9               339                       # Per bank write bursts
system.mem_ctrls.perBankWrBursts::10              273                       # Per bank write bursts
system.mem_ctrls.perBankWrBursts::11              211                       # Per bank write bursts
system.mem_ctrls.perBankWrBursts::12              267                       # Per bank write bursts
system.mem_ctrls.perBankWrBursts::13              334                       # Per bank write bursts
system.mem_ctrls.perBankWrBursts::14              359                       # Per bank write bursts
system.mem_ctrls.perBankWrBursts::15              325                       # Per bank write bursts
system.mem_ctrls.avgRdQLen                       1.02                       # Average read queue length when enqueuing
system.mem_ctrls.avgWrQLen                      25.86                       # Average write queue length when enqueuing
system.mem_ctrls.totQLat                    853528515                       # Total ticks spent queuing
system.mem_ctrls.totBusLat                  316125000                       # Total ticks spent in databus transfers
system.mem_ctrls.totMemAccLat              2513184765                       # Total ticks spent from burst creation until serviced by the DRAM
system.mem_ctrls.avgQLat                     13499.86                       # Average queueing delay per DRAM burst
system.mem_ctrls.avgBusLat                    5000.00                       # Average bus latency per DRAM burst
system.mem_ctrls.avgMemAccLat                39749.86                       # Average memory access latency per DRAM burst
system.mem_ctrls.numRdRetry                         0                       # Number of times read queue was full causing retry
system.mem_ctrls.numWrRetry                         0                       # Number of times write queue was full causing retry
system.mem_ctrls.readRowHits                    40641                       # Number of row buffer hits during reads
system.mem_ctrls.writeRowHits                    3209                       # Number of row buffer hits during writes
system.mem_ctrls.readRowHitRate                 64.28                       # Row buffer hit rate for reads
system.mem_ctrls.writeRowHitRate                64.58                       # Row buffer hit rate for writes
system.mem_ctrls.readPktSize::0                     0                       # Read request sizes (log2)
system.mem_ctrls.readPktSize::1                     0                       # Read request sizes (log2)
[...]
system.mem_ctrls.wrQLenPdf::19                    292                       # What write queue length does an incoming req see
system.mem_ctrls.wrQLenPdf::20                    297                       # What write queue length does an incoming req see
system.mem_ctrls.wrQLenPdf::21                    299                       # What write queue length does an incoming req see
system.mem_ctrls.wrQLenPdf::22                    295                       # What write queue length does an incoming req see
system.mem_ctrls.wrQLenPdf::23                    294                       # What write queue length does an incoming req see
system.mem_ctrls.wrQLenPdf::24                    295                       # What write queue length does an incoming req see
system.mem_ctrls.wrQLenPdf::25                    296                       # What write queue length does an incoming req see
system.mem_ctrls.wrQLenPdf::26                    293                       # What write queue length does an incoming req see
system.mem_ctrls.wrQLenPdf::27                    294                       # What write queue length does an incoming req see
system.mem_ctrls.wrQLenPdf::28                    292                       # What write queue length does an incoming req see
system.mem_ctrls.wrQLenPdf::29                    292                       # What write queue length does an incoming req see
system.mem_ctrls.wrQLenPdf::30                    292                       # What write queue length does an incoming req see
system.mem_ctrls.wrQLenPdf::31                    292                       # What write queue length does an incoming req see
system.mem_ctrls.wrQLenPdf::32                    292                       # What write queue length does an incoming req see
system.mem_ctrls.wrQLenPdf::33                      1                       # What write queue length does an incoming req see
system.mem_ctrls.wrQLenPdf::34                      1                       # What write queue length does an incoming req see
system.mem_ctrls.wrQLenPdf::35                      1                       # What write queue length does an incoming req see
system.mem_ctrls.wrQLenPdf::36                      1                       # What write queue length does an incoming req see
system.mem_ctrls.wrQLenPdf::37                      1                       # What write queue length does an incoming req see
system.mem_ctrls.wrQLenPdf::38                      3                       # What write queue length does an incoming req see
system.mem_ctrls.wrQLenPdf::39                      3                       # What write queue length does an incoming req see
system.mem_ctrls.wrQLenPdf::40                      2                       # What write queue length does an incoming req see
system.mem_ctrls.wrQLenPdf::41                      1                       # What write queue length does an incoming req see
system.mem_ctrls.wrQLenPdf::42                      1                       # What write queue length does an incoming req see
system.mem_ctrls.wrQLenPdf::43                      1                       # What write queue length does an incoming req see
system.mem_ctrls.wrQLenPdf::44                      2                       # What write queue length does an incoming req see
system.mem_ctrls.wrQLenPdf::45                      1                       # What write queue length does an incoming req see
system.mem_ctrls.wrQLenPdf::46                      2                       # What write queue length does an incoming req see
system.mem_ctrls.wrQLenPdf::47                      1                       # What write queue length does an incoming req see
system.mem_ctrls.wrQLenPdf::48                      2                       # What write queue length does an incoming req see
system.mem_ctrls.wrQLenPdf::49                      1                       # What write queue length does an incoming req see
system.mem_ctrls.wrQLenPdf::50                      3                       # What write queue length does an incoming req see
system.mem_ctrls.wrQLenPdf::51                      1                       # What write queue length does an incoming req see
system.mem_ctrls.wrQLenPdf::52                      1                       # What write queue length does an incoming req see
system.mem_ctrls.wrQLenPdf::53                      1                       # What write queue length does an incoming req see
system.mem_ctrls.wrQLenPdf::54                      1                       # What write queue length does an incoming req see
system.mem_ctrls.wrQLenPdf::55                      0                       # What write queue length does an incoming req see
system.mem_ctrls.wrQLenPdf::56                      0                       # What write queue length does an incoming req see
system.mem_ctrls.wrQLenPdf::57                      0                       # What write queue length does an incoming req see
system.mem_ctrls.wrQLenPdf::58                      0                       # What write queue length does an incoming req see
system.mem_ctrls.wrQLenPdf::59                      0                       # What write queue length does an incoming req see
system.mem_ctrls.wrQLenPdf::60                      0                       # What write queue length does an incoming req see
system.mem_ctrls.wrQLenPdf::61                      0                       # What write queue length does an incoming req see
system.mem_ctrls.wrQLenPdf::62                      0                       # What write queue length does an incoming req see
system.mem_ctrls.wrQLenPdf::63                      0                       # What write queue length does an incoming req see
system.mem_ctrls.bytesPerActivate::samples        24311                       # Bytes accessed per row activation
system.mem_ctrls.bytesPerActivate::mean    179.387438                       # Bytes accessed per row activation
system.mem_ctrls.bytesPerActivate::gmean   142.135550                       # Bytes accessed per row activation
system.mem_ctrls.bytesPerActivate::stdev   131.630829                       # Bytes accessed per row activation
system.mem_ctrls.bytesPerActivate::0-127         8170     33.61%     33.61% # Bytes accessed per row activation
system.mem_ctrls.bytesPerActivate::128-255         9132     37.56%     71.17% # Bytes accessed per row activation
system.mem_ctrls.bytesPerActivate::256-383         4982     20.49%     91.66% # Bytes accessed per row activation
system.mem_ctrls.bytesPerActivate::384-511         1500      6.17%     97.83% # Bytes accessed per row activation
system.mem_ctrls.bytesPerActivate::512-639          287      1.18%     99.01% # Bytes accessed per row activation
system.mem_ctrls.bytesPerActivate::640-767           78      0.32%     99.33% # Bytes accessed per row activation
system.mem_ctrls.bytesPerActivate::768-895           61      0.25%     99.58% # Bytes accessed per row activation
system.mem_ctrls.bytesPerActivate::896-1023           23      0.09%     99.68% # Bytes accessed per row activation
system.mem_ctrls.bytesPerActivate::1024-1151           78      0.32%    100.00% # Bytes accessed per row activation
system.mem_ctrls.bytesPerActivate::total        24311                       # Bytes accessed per row activation
system.mem_ctrls.rdPerTurnAround::samples          293                       # Reads before turning the bus around for writes
system.mem_ctrls.rdPerTurnAround::mean     215.501706                       # Reads before turning the bus around for writes
system.mem_ctrls.rdPerTurnAround::gmean     59.863665                       # Reads before turning the bus around for writes
system.mem_ctrls.rdPerTurnAround::stdev    370.060192                       # Reads before turning the bus around for writes
system.mem_ctrls.rdPerTurnAround::0-31            136     46.42%     46.42% # Reads before turning the bus around for writes
system.mem_ctrls.rdPerTurnAround::32-63            76     25.94%     72.35% # Reads before turning the bus around for writes
system.mem_ctrls.rdPerTurnAround::64-95            10      3.41%     75.77% # Reads before turning the bus around for writes
system.mem_ctrls.rdPerTurnAround::96-127            3      1.02%     76.79% # Reads before turning the bus around for writes
system.mem_ctrls.rdPerTurnAround::128-159            1      0.34%     77.13% # Reads before turning the bus around for writes
system.mem_ctrls.rdPerTurnAround::160-191            3      1.02%     78.16% # Reads before turning the bus around for writes
system.mem_ctrls.rdPerTurnAround::192-223            1      0.34%     78.50% # Reads before turning the bus around for writes
system.mem_ctrls.rdPerTurnAround::224-255            1      0.34%     78.84% # Reads before turning the bus around for writes
system.mem_ctrls.rdPerTurnAround::448-479            2      0.68%     79.52% # Reads before turning the bus around for writes
system.mem_ctrls.rdPerTurnAround::480-511            1      0.34%     79.86% # Reads before turning the bus around for writes
system.mem_ctrls.rdPerTurnAround::544-575            4      1.37%     81.23% # Reads before turning the bus around for writes
system.mem_ctrls.rdPerTurnAround::576-607            3      1.02%     82.25% # Reads before turning the bus around for writes
system.mem_ctrls.rdPerTurnAround::608-639            1      0.34%     82.59% # Reads before turning the bus around for writes
system.mem_ctrls.rdPerTurnAround::640-671            2      0.68%     83.28% # Reads before turning the bus around for writes
system.mem_ctrls.rdPerTurnAround::672-703            2      0.68%     83.96% # Reads before turning the bus around for writes
system.mem_ctrls.rdPerTurnAround::704-735            6      2.05%     86.01% # Reads before turning the bus around for writes
system.mem_ctrls.rdPerTurnAround::736-767            2      0.68%     86.69% # Reads before turning the bus around for writes
system.mem_ctrls.rdPerTurnAround::768-799            4      1.37%     88.05% # Reads before turning the bus around for writes
system.mem_ctrls.rdPerTurnAround::800-831            3      1.02%     89.08% # Reads before turning the bus around for writes
system.mem_ctrls.rdPerTurnAround::832-863            1      0.34%     89.42% # Reads before turning the bus around for writes
system.mem_ctrls.rdPerTurnAround::864-895            3      1.02%     90.44% # Reads before turning the bus around for writes
system.mem_ctrls.rdPerTurnAround::896-927            4      1.37%     91.81% # Reads before turning the bus around for writes
system.mem_ctrls.rdPerTurnAround::928-959            1      0.34%     92.15% # Reads before turning the bus around for writes
system.mem_ctrls.rdPerTurnAround::960-991            5      1.71%     93.86% # Reads before turning the bus around for writes
system.mem_ctrls.rdPerTurnAround::992-1023            1      0.34%     94.20% # Reads before turning the bus around for writes
system.mem_ctrls.rdPerTurnAround::1024-1055            2      0.68%     94.88% # Reads before turning the bus around for writes
system.mem_ctrls.rdPerTurnAround::1056-1087            2      0.68%     95.56% # Reads before turning the bus around for writes
system.mem_ctrls.rdPerTurnAround::1088-1119            2      0.68%     96.25% # Reads before turning the bus around for writes
system.mem_ctrls.rdPerTurnAround::1120-1151            2      0.68%     96.93% # Reads before turning the bus around for writes
system.mem_ctrls.rdPerTurnAround::1152-1183            3      1.02%     97.95% # Reads before turning the bus around for writes
system.mem_ctrls.rdPerTurnAround::1184-1215            1      0.34%     98.29% # Reads before turning the bus around for writes
system.mem_ctrls.rdPerTurnAround::1248-1279            1      0.34%     98.63% # Reads before turning the bus around for writes
system.mem_ctrls.rdPerTurnAround::1376-1407            2      0.68%     99.32% # Reads before turning the bus around for writes
system.mem_ctrls.rdPerTurnAround::1408-1439            1      0.34%     99.66% # Reads before turning the bus around for writes
system.mem_ctrls.rdPerTurnAround::1888-1919            1      0.34%    100.00% # Reads before turning the bus around for writes
system.mem_ctrls.rdPerTurnAround::total           293                       # Reads before turning the bus around for writes
system.mem_ctrls.wrPerTurnAround::samples          293                       # Writes before turning the bus around for reads
system.mem_ctrls.wrPerTurnAround::mean      16.866894                       # Writes before turning the bus around for reads
system.mem_ctrls.wrPerTurnAround::gmean     16.822475                       # Writes before turning the bus around for reads
system.mem_ctrls.wrPerTurnAround::stdev      1.303064                       # Writes before turning the bus around for reads
system.mem_ctrls.wrPerTurnAround::16              179     61.09%     61.09% # Writes before turning the bus around for reads
system.mem_ctrls.wrPerTurnAround::17                4      1.37%     62.46% # Writes before turning the bus around for reads
system.mem_ctrls.wrPerTurnAround::18               93     31.74%     94.20% # Writes before turning the bus around for reads
system.mem_ctrls.wrPerTurnAround::19               15      5.12%     99.32% # Writes before turning the bus around for reads
system.mem_ctrls.wrPerTurnAround::22                1      0.34%     99.66% # Writes before turning the bus around for reads
system.mem_ctrls.wrPerTurnAround::29                1      0.34%    100.00% # Writes before turning the bus around for reads
system.mem_ctrls.wrPerTurnAround::total           293                       # Writes before turning the bus around for reads
system.mem_ctrls.bytesReadDRAM                4046400                       # Total number of bytes read from DRAM
system.mem_ctrls.bytesReadWrQ                   12992                       # Total number of bytes read from write queue
system.mem_ctrls.bytesWritten                  316288                       # Total number of bytes written to DRAM
system.mem_ctrls.bytesReadSys                 4059392                       # Total read bytes from the system interface side
system.mem_ctrls.bytesWrittenSys               321792                       # Total written bytes from the system interface side
system.mem_ctrls.avgRdBW                        13.85                       # Average DRAM read bandwidth in MiByte/s
system.mem_ctrls.avgWrBW                         1.08                       # Average achieved write bandwidth in MiByte/s
system.mem_ctrls.avgRdBWSys                     13.90                       # Average system read bandwidth in MiByte/s
system.mem_ctrls.avgWrBWSys                      1.10                       # Average system write bandwidth in MiByte/s
system.mem_ctrls.peakBW                      12800.00                       # Theoretical peak bandwidth in MiByte/s
system.mem_ctrls.busUtil                         0.12                       # Data bus utilization in percentage
system.mem_ctrls.busUtilRead                     0.11                       # Data bus utilization in percentage for reads
system.mem_ctrls.busUtilWrite                    0.01                       # Data bus utilization in percentage for writes
system.mem_ctrls.totGap                  292138213125                       # Total gap between requests
system.mem_ctrls.avgGap                    4267532.62                       # Average gap between requests
system.mem_ctrls.masterReadBytes::.cpu_cluster.cpus.inst      3530816                       # Per-master bytes read from memory
system.mem_ctrls.masterReadBytes::.cpu_cluster.cpus.data       515584                       # Per-master bytes read from memory
system.mem_ctrls.masterWriteBytes::.writebacks       316288                       # Per-master bytes write to memory
system.mem_ctrls.masterReadRate::.cpu_cluster.cpus.inst 12086114.683026706800                       # Per-master bytes read from memory rate (Bytes/sec)
system.mem_ctrls.masterReadRate::.cpu_cluster.cpus.data 1764863.236354894238                       # Per-master bytes read from memory rate (Bytes/sec)
system.mem_ctrls.masterWriteRate::.writebacks 1082665.605023074429                       # Per-master bytes write to memory rate (Bytes/sec)
system.mem_ctrls.masterReadAccesses::.cpu_cluster.cpus.inst        55169                       # Per-master read serviced memory accesses
system.mem_ctrls.masterReadAccesses::.cpu_cluster.cpus.data         8259                       # Per-master read serviced memory accesses
system.mem_ctrls.masterWriteAccesses::.writebacks         5028                       # Per-master write serviced memory accesses
system.mem_ctrls.masterReadTotalLat::.cpu_cluster.cpus.inst   2163267200                       # Per-master read total memory access latency
system.mem_ctrls.masterReadTotalLat::.cpu_cluster.cpus.data    349917565                       # Per-master read total memory access latency
system.mem_ctrls.masterWriteTotalLat::.writebacks 7519269430375                       # Per-master write total memory access latency
system.mem_ctrls.masterReadAvgLat::.cpu_cluster.cpus.inst     39211.64                       # Per-master read average memory access latency
system.mem_ctrls.masterReadAvgLat::.cpu_cluster.cpus.data     42368.03                       # Per-master read average memory access latency
system.mem_ctrls.masterWriteAvgLat::.writebacks 1495479202.54                       # Per-master write average memory access latency
system.mem_ctrls.pageHitRate                    64.30                       # Row buffer hit rate, read and write combined
system.mem_ctrls.rank0.actEnergy                    0                       # Energy for activate commands per rank (pJ)
system.mem_ctrls.rank0.preEnergy                    0                       # Energy for precharge commands per rank (pJ)
system.mem_ctrls.rank0.readEnergy                   0                       # Energy for read commands per rank (pJ)
system.mem_ctrls.rank0.writeEnergy                  0                       # Energy for write commands per rank (pJ)
system.mem_ctrls.rank0.refreshEnergy                0                       # Energy for refresh commands per rank (pJ)
system.mem_ctrls.rank0.actBackEnergy                0                       # Energy for active background per rank (pJ)
system.mem_ctrls.rank0.preBackEnergy                0                       # Energy for precharge background per rank (pJ)
system.mem_ctrls.rank0.actPowerDownEnergy            0                       # Energy for active power-down per rank (pJ)
system.mem_ctrls.rank0.prePowerDownEnergy            0                       # Energy for precharge power-down per rank (pJ)
system.mem_ctrls.rank0.selfRefreshEnergy            0                       # Energy for self refresh per rank (pJ)
system.mem_ctrls.rank0.totalEnergy                  0                       # Total energy per rank (pJ)
system.mem_ctrls.rank0.averagePower                 0                       # Core power per rank (mW)
system.mem_ctrls.rank0.totalIdleTime                0                       # Total Idle time Per DRAM Rank
system.mem_ctrls.rank0.memoryStateTime::IDLE 267654851635                       # Time in different power states
system.mem_ctrls.rank0.memoryStateTime::REF  15803340000                       # Time in different power states
system.mem_ctrls.rank0.memoryStateTime::SREF            0                       # Time in different power states
system.mem_ctrls.rank0.memoryStateTime::PRE_PDN            0                       # Time in different power states
system.mem_ctrls.rank0.memoryStateTime::ACT   8680025865                       # Time in different power states
system.mem_ctrls.rank0.memoryStateTime::ACT_PDN            0                       # Time in different power states

---------- End Simulation Statistics   ----------
