gem5 Simulator System.  http://gem5.org
gem5 is copyrighted software; use the --copyright option for details.

gem5 compiled Oct  4 2023 20:26:28
gem5 started Oct  6 2023 11:13:08
gem5 executing on node4x10a.cs.rochester.edu, pid 55038
command line: /u/sgupta45/gem5-SALAM/build/ARM/gem5_bus.opt --debug-flags=HWACC,CommInterface,LLVMInterface,StreamDma,NoncoherentDma,TickTimer,SchedulerStats --outdir=BM_ARM_OUT/comb_pred_3_opt_flush_opt_fwd/canny_1_deblur_0_gru_0_harris_1_lstm_1_ELF_MEM_PRED_AVERAGE_15_dm_false configs/SALAM/scheduler.py --mem-size=4GB --mem-type=LPDDR5_6400_1x16_BG_BL32 --kernel=/u/sgupta45/gem5-SALAM/benchmarks/scheduler/sw/bin_comb_pred_3/canny_1_deblur_0_gru_0_harris_1_lstm_1_ELF_MEM_PRED_AVERAGE_15_dm_false.elf --vans-config-path=/u/sgupta45/VANS/config --disk-image=/u/sgupta45/gem5-SALAM/baremetal/common/fake.iso --machine-type=VExpress_GEM5_V1 --dtb-file=none --bare-metal --cpu-type=ex5_LITTLE --cpu-clock=1.6GHz --accpath=/u/sgupta45/gem5-SALAM/benchmarks --caches --cacheline_size=64 --l1d_size=32kB --l1d_assoc=4 --l1i_size=32kB --l1i_assoc=2

Global frequency set at 1000000000000 ticks per second
Cycle Counts Loaded!
Cycle Counts Loaded!
Cycle Counts Loaded!
Cycle Counts Loaded!
Cycle Counts Loaded!
Cycle Counts Loaded!
Cycle Counts Loaded!
Cycle Counts Loaded!
Cycle Counts Loaded!
Cycle Counts Loaded!
Cycle Counts Loaded!
**** REAL SIMULATION ****
3838750: global: Timer #8 started at tick 3838750
7260625: global: Timer #8 stopped at tick 7260625. Duration: 3421875
7330625: global: Timer #8 started at tick 7330625
16689375: global: Timer #8 stopped at tick 16689375. Duration: 9358750
17091875: global: Timer #8 started at tick 17091875
29543750: global: Timer #8 stopped at tick 29543750. Duration: 12451875
30230000: global: Timer #8 started at tick 30230000
30283750: global: Timer #8 stopped at tick 30283750. Duration: 53750
30309375: global: Timer #8 started at tick 30309375
42766250: global: Timer #8 stopped at tick 42766250. Duration: 12456875
45771875: global: Timer #8 started at tick 45771875
45807500: global: Timer #8 stopped at tick 45807500. Duration: 35625
45833750: global: Timer #8 started at tick 45833750
45863125: global: Timer #8 stopped at tick 45863125. Duration: 29375
45923125: global: Timer #8 started at tick 45923125
58376250: global: Timer #8 stopped at tick 58376250. Duration: 12453125
58395000: global: Timer #8 started at tick 58395000
70855625: global: Timer #8 stopped at tick 70855625. Duration: 12460625
70873125: global: Timer #8 started at tick 70873125
83336250: global: Timer #8 stopped at tick 83336250. Duration: 12463125
83353750: global: Timer #8 started at tick 83353750
95811875: global: Timer #8 stopped at tick 95811875. Duration: 12458125
95828750: global: Timer #8 started at tick 95828750
108282500: global: Timer #8 stopped at tick 108282500. Duration: 12453750
108300000: global: Timer #8 started at tick 108300000
120755625: global: Timer #8 stopped at tick 120755625. Duration: 12455625
120772500: global: Timer #8 started at tick 120772500
133226250: global: Timer #8 stopped at tick 133226250. Duration: 12453750
133706875: global: Timer #8 started at tick 133706875
146167500: global: Timer #8 stopped at tick 146167500. Duration: 12460625
146508125: global: Timer #8 started at tick 146508125
149647500: global: Timer #8 stopped at tick 149647500. Duration: 3139375
151027500: global: Timer #8 started at tick 151027500
154258750: global: Timer #8 stopped at tick 154258750. Duration: 3231250
154275625: global: Timer #8 started at tick 154275625
163619375: global: Timer #8 stopped at tick 163619375. Duration: 9343750
164010625: global: Timer #8 started at tick 164010625
176462500: global: Timer #8 stopped at tick 176462500. Duration: 12451875
177645000: global: Timer #8 started at tick 177645000
177680625: global: Timer #8 stopped at tick 177680625. Duration: 35625
177698750: global: Timer #8 started at tick 177698750
177728125: global: Timer #8 stopped at tick 177728125. Duration: 29375
177745000: global: Timer #8 started at tick 177745000
190207500: global: Timer #8 stopped at tick 190207500. Duration: 12462500
190226250: global: Timer #8 started at tick 190226250
202684375: global: Timer #8 stopped at tick 202684375. Duration: 12458125
205285625: global: Timer #8 started at tick 205285625
217742500: global: Timer #8 stopped at tick 217742500. Duration: 12456875
217760625: global: Timer #8 started at tick 217760625
230212500: global: Timer #8 stopped at tick 230212500. Duration: 12451875
230229375: global: Timer #8 started at tick 230229375
242686250: global: Timer #8 stopped at tick 242686250. Duration: 12456875
242703750: global: Timer #8 started at tick 242703750
255156875: global: Timer #8 stopped at tick 255156875. Duration: 12453125
255173750: global: Timer #8 started at tick 255173750
267627500: global: Timer #8 stopped at tick 267627500. Duration: 12453750
267645000: global: Timer #8 started at tick 267645000
280100625: global: Timer #8 stopped at tick 280100625. Duration: 12455625
280117500: global: Timer #8 started at tick 280117500
280164375: global: Timer #8 stopped at tick 280164375. Duration: 46875
282606875: global: Timer #8 started at tick 282606875
295064375: global: Timer #8 stopped at tick 295064375. Duration: 12457500
295110625: global: Timer #8 started at tick 295110625
307562500: global: Timer #8 stopped at tick 307562500. Duration: 12451875
307621875: global: Timer #8 started at tick 307621875
320077500: global: Timer #8 stopped at tick 320077500. Duration: 12455625
320095625: global: Timer #8 started at tick 320095625
332547500: global: Timer #8 stopped at tick 332547500. Duration: 12451875
332564375: global: Timer #8 started at tick 332564375
332599375: global: Timer #8 stopped at tick 332599375. Duration: 35000
332618125: global: Timer #8 started at tick 332618125
345076250: global: Timer #8 stopped at tick 345076250. Duration: 12458125
345093750: global: Timer #8 started at tick 345093750
357547500: global: Timer #8 stopped at tick 357547500. Duration: 12453750
357564375: global: Timer #8 started at tick 357564375
370021250: global: Timer #8 stopped at tick 370021250. Duration: 12456875
370368750: global: Timer #8 started at tick 370368750
373499375: global: Timer #8 stopped at tick 373499375. Duration: 3130625
374512500: global: Timer #8 started at tick 374512500
386971250: global: Timer #8 stopped at tick 386971250. Duration: 12458750
387030625: global: Timer #8 started at tick 387030625
399482500: global: Timer #8 stopped at tick 399482500. Duration: 12451875
399499375: global: Timer #8 started at tick 399499375
411956250: global: Timer #8 stopped at tick 411956250. Duration: 12456875
411974375: global: Timer #8 started at tick 411974375
424431250: global: Timer #8 stopped at tick 424431250. Duration: 12456875
424450000: global: Timer #8 started at tick 424450000
436905625: global: Timer #8 stopped at tick 436905625. Duration: 12455625
436922500: global: Timer #8 started at tick 436922500
449376250: global: Timer #8 stopped at tick 449376250. Duration: 12453750
449393750: global: Timer #8 started at tick 449393750
461847500: global: Timer #8 stopped at tick 461847500. Duration: 12453750
461866250: global: Timer #8 started at tick 461866250
474324375: global: Timer #8 stopped at tick 474324375. Duration: 12458125
474943750: global: Timer #8 started at tick 474943750
487397500: global: Timer #8 stopped at tick 487397500. Duration: 12453750
487414375: global: Timer #8 started at tick 487414375
499871250: global: Timer #8 stopped at tick 499871250. Duration: 12456875
1097117500: global: Timer #8 started at tick 1097117500
1333451250: global: Timer #8 stopped at tick 1333451250. Duration: 236333750
1780836250: global: Timer #8 started at tick 1780836250
2017166250: global: Timer #8 stopped at tick 2017166250. Duration: 236330000
2464664375: global: Timer #8 started at tick 2464664375
2700988125: global: Timer #8 stopped at tick 2700988125. Duration: 236323750
3148339375: global: Timer #8 started at tick 3148339375
3384666250: global: Timer #8 stopped at tick 3384666250. Duration: 236326875
3832193125: global: Timer #8 started at tick 3832193125
4068513125: global: Timer #8 stopped at tick 4068513125. Duration: 236320000
4515678125: global: Timer #8 started at tick 4515678125
4751998125: global: Timer #8 stopped at tick 4751998125. Duration: 236320000
5199375000: global: Timer #8 started at tick 5199375000
5435691250: global: Timer #8 stopped at tick 5435691250. Duration: 236316250
5882898125: global: Timer #8 started at tick 5882898125
6119218125: global: Timer #8 stopped at tick 6119218125. Duration: 236320000
6121708750: global: Timer #4 started at tick 6121708750
6122041875: global: Timer #4 stopped at tick 6122041875. Duration: 333125
6122060625: global: Timer #5 started at tick 6122060625
6122169375: global: Timer #5 stopped at tick 6122169375. Duration: 108750
6123225625: global: Timer #2 started at tick 6123225625
6123679375: global: Timer #2 stopped at tick 6123679375. Duration: 453750
6125870000: global: Timer #4 started at tick 6125870000
6126192500: global: Timer #4 stopped at tick 6126192500. Duration: 322500
6126208125: global: Timer #5 started at tick 6126208125
6126225000: global: Timer #5 stopped at tick 6126225000. Duration: 16875
6126470000: global: Timer #2 started at tick 6126470000
6126591875: global: Timer #2 stopped at tick 6126591875. Duration: 121875
6129611875: global: Timer #4 started at tick 6129611875
6129763125: global: Timer #4 stopped at tick 6129763125. Duration: 151250
6129778750: global: Timer #5 started at tick 6129778750
6129795625: global: Timer #5 stopped at tick 6129795625. Duration: 16875
6130058750: global: Timer #2 started at tick 6130058750
6130169375: global: Timer #2 stopped at tick 6130169375. Duration: 110625
6152233750: global: Timer #6 started at tick 6152233750
6152795625: global: Timer #7 started at tick 6152795625
6153556625: system.acctest.elem_matrix0_dma: SRC:0x000000008241e940, DST:0x0000000024000020, LEN:65536
6153838125: global: Timer #7 stopped at tick 6153838125. Duration: 1042500
6153953750: global: Timer #6 stopped at tick 6153953750. Duration: 1720000
6154241250: global: Timer #6 started at tick 6154241250
6154765625: global: Timer #7 started at tick 6154765625
6155493750: system.acctest.isp0_dma: SRC:0x0000000082092e80, DST:0x0000000027000020, LEN:16900
6155815625: global: Timer #7 stopped at tick 6155815625. Duration: 1050000
6155846875: global: Timer #6 stopped at tick 6155846875. Duration: 1605625
6155914375: global: Number of accelerators running = 2
6159653750: system.acctest.isp0_dma: Transfer completed in 4.16 us
6160389375: global: Timer #0 started at tick 6160389375
6161908750: global: Timer #1 started at tick 6161908750
6162610000: global: Timer #1 stopped at tick 6162610000. Duration: 701250
6163225625: global: Timer #6 started at tick 6163225625
6163525625: global: Timer #7 started at tick 6163525625
6164055000: global: Timer #7 stopped at tick 6164055000. Duration: 529375
6164347500: global: Timer #6 stopped at tick 6164347500. Duration: 1121875
6164713750: global: Timer #0 stopped at tick 6164713750. Duration: 4324375
6164732500: global: Number of accelerators running = 2
6166598625: system.acctest.elem_matrix0_dma: Transfer completed in 13.042 us
6166735625: global: Timer #0 started at tick 6166735625
6167135625: global: Timer #1 started at tick 6167135625
6167363125: global: Timer #1 stopped at tick 6167363125. Duration: 227500
6167640000: global: Timer #6 started at tick 6167640000
6168176875: global: Timer #7 started at tick 6168176875
6168822375: system.acctest.elem_matrix0_dma: SRC:0x00000000822de780, DST:0x0000000024010020, LEN:65536
6168953125: global: Timer #7 stopped at tick 6168953125. Duration: 776250
6169028750: global: Timer #6 stopped at tick 6169028750. Duration: 1388750
6169146875: global: Timer #0 stopped at tick 6169146875. Duration: 2411250
6169161250: global: Number of accelerators running = 2
6180810375: system.acctest.elem_matrix0_dma: Transfer completed in 11.988 us
6180885000: global: Timer #0 started at tick 6180885000
6181232500: global: Timer #1 started at tick 6181232500
6181448125: global: Timer #1 stopped at tick 6181448125. Duration: 215625
6181748750: global: Timer #6 started at tick 6181748750
6181834375: global: Timer #7 started at tick 6181834375
6182860000: global: Timer #7 stopped at tick 6182860000. Duration: 1025625
6182952500: global: Timer #6 stopped at tick 6182952500. Duration: 1203750
6183080625: global: Timer #0 stopped at tick 6183080625. Duration: 2195625
6183095000: global: Number of accelerators running = 2
********************************************************************************
system.acctest.elem_matrix0.compute
   ========= Performance Analysis =============
   Setup Time:                      3.95489seconds
   Simulation Time:                 408.987seconds
   System Clock:                    1GHz
   Transistor Latency:              1ns
   Runtime:                         10932 cycles
   Runtime:                         10.932 us
   Stalls:                          0 cycles
   Executed Nodes:                  10931 cycles

********************************************************************************
   ========= Performance Analysis =================
   Setup Time:                      3.95489e+09ns
   Simulation Time:                 4.08987e+11ns
   System Clock:                    1GHz
   Transistor Latency:              0ns
   Runtime:                         10932 cycles
   Runtime:                         1.0932e-06 seconds
   Stalls:                          0 cycles
       Load Only:                   0 cycles
       Store Only:                  0 cycles
       Compute Only:                0 cycles
       Compute & Store:             0 cycles
       Load & Store:                0 cycles
       Load & Compute:              0 cycles
       Load & Compute & Store:      0 cycles
   Executed Nodes:                  10931 cycles
       Load Only:                   0 cycles
       Store Only:                  5 cycles
       Compute Only:                1 cycles
       Compute & Store:             21 cycles
       Load & Store:                0 cycles
       Load & Compute:              7 cycles
       Load & Compute & Store:      10897 cycles

   ========= Runtime FU's ========= (Max | Avg) ===
   Counter FU's:                      32 | 0.046838
   Integer Add/Sub FU's:               0 | 0.000000
   Integer Mul/Div FU's:               0 | 0.000000
   Integer Shifter FU's:               0 | 0.000000
   Integer Bitwise FU's:               1 | 0.000091
   Floating Point Float Add/Sub:      34 | 0.044252
   Floating Point Double Add/Sub:      0 | 0.000000
   Floating Point Float Mul/Div:       0 | 0.000000
   Floating Point Double Mul/Div:      0 | 0.000000
   0 Cycle Compare FU's:             102 | 0.046974
   GEP Instruction FU's:              96 | 0.046835
   Type Conversion FU's:               7 | 0.006782

   ========= Static FU's ==========================
   Counter FU's:                    0
   Integer Add/Sub FU's:            0
   Integer Mul/Div FU's:            0
   Integer Shifter FU's:            0
   Integer Bitwise FU's:            0
   Floating Point Float Add/Sub:    0
   Floating Point Double Add/Sub:   0
   Floating Point Float Mul/Div:    0
   Floating Point Double Mul/Div:   0
   0 Cycle Compare FU's:            0
   GEP Instruction FU's:            0
   Type Conversion FU's:            0
   Other:                           0

   ========= Pipeline Register Usage =============
   Total Number of Registers:       5641
   Max Register Usage Per Cycle:    138
   Avg Register Usage Per Cycle:    12.130992
   Avg Register Size (Bytes):       5.980606

   ========= Memory Configuration =================
   Cache Bus Ports:                 0
   Shared Cache Size:               0kB
   Local Bus Ports:                 0
   Private SPM Size:                256kB
   Private Read Ports:              0
   Private Write Ports:             0
   Private Read Bus Width:          64
   Private Write Bus Width:         64
       Memory Reads:                0
       Memory Writes:               0
   ========= Power Analysis ======================
   FU Leakage Power:                0.519269 mW 
   FU Dynamic Power:                0.154621 mW 
   FU Total Power:                  0.673890 mW 

   Registers Leakage Power:          0.005281 mW 
   Registers Dynamic Power:          0.015326 mW 
       Register Reads (Bits):        132616
       Register Writes (Bits):       133658
   Registers Total Power:            0.020607 mW

   SPM Leakage Power:               0.104100 mW
   SPM Read Dynamic Power:          1.997266 mW
   SPM Write Dynamic Power:         0.953321 mW
   SPM Total Power:                 3.054688 mW

   SPM Energy Per Read Access:      0.170493 nJ
   SPM Energy Per Write Access:     0.218190 nJ

   Cache Leakage Power:             0.000000 mW
   Cache Read Dynamic Power:        0.000000 mW
   Cache Write Dynamic Power:       0.000000 mW
   Cache Total Power:               0.000000 mW

   Accelerator Power:               0.694497 mW
   Accelerator Power (SPM):         3.749184 mW
   Accelerator Power (Cache):       0.694497 mW

   ========= Area Analysis =======================
   FU Area:                         70212.562500 um^2 (0.070213 mm^2)
   Register Area:                   429.271088 um^2 (0.000429 mm^2)
   SPM Area:                        2177.365505 um^2 (0.002177 mm^2)
   Cache Area:                      0.000000 um^2 (0.000000 mm^2)

   Accelerator Area:                70641.835938 um^2 (0.070642 mm^2)
   Accelerator Area (SPM):          72819.201442 um^2 (0.072819 mm^2)
   Accelerator Area (Cache):        70641.835938 um^2 (0.070642 mm^2)

   ========= SPM Resizing  =======================
   SPM Optimized Leakage Power:     0.004248 mW
   SPM Opt Area:                    178.524902 um^2

6193745000: global: Timer #0 started at tick 6193745000
6194066875: global: Timer #3 started at tick 6194066875
6194161250: global: Timer #4 started at tick 6194161250
6194346250: global: Timer #4 stopped at tick 6194346250. Duration: 185000
6194406250: global: Timer #5 started at tick 6194406250
6194511250: global: Timer #5 stopped at tick 6194511250. Duration: 105000
6194945000: global: Timer #3 stopped at tick 6194945000. Duration: 878125
6195058750: global: Timer #3 started at tick 6195058750
6195158125: global: Timer #4 started at tick 6195158125
6195206250: global: Timer #4 stopped at tick 6195206250. Duration: 48125
6195221875: global: Timer #5 started at tick 6195221875
6195240625: global: Timer #5 stopped at tick 6195240625. Duration: 18750
6195730000: global: Timer #3 stopped at tick 6195730000. Duration: 671250
6195978750: global: Timer #3 started at tick 6195978750
6196012500: global: Timer #4 started at tick 6196012500
6196114375: global: Timer #4 stopped at tick 6196114375. Duration: 101875
6196125625: global: Timer #5 started at tick 6196125625
6196140625: global: Timer #5 stopped at tick 6196140625. Duration: 15000
6196430625: global: Timer #3 stopped at tick 6196430625. Duration: 451875
6196533125: global: Timer #3 started at tick 6196533125
6196626250: global: Timer #4 started at tick 6196626250
6196669375: global: Timer #4 stopped at tick 6196669375. Duration: 43125
6196680625: global: Timer #5 started at tick 6196680625
6196695625: global: Timer #5 stopped at tick 6196695625. Duration: 15000
6196950000: global: Timer #3 stopped at tick 6196950000. Duration: 416875
6197294375: global: Timer #2 started at tick 6197294375
6197894375: global: Timer #2 stopped at tick 6197894375. Duration: 600000
6197940625: global: Timer #2 started at tick 6197940625
6198121250: global: Timer #2 stopped at tick 6198121250. Duration: 180625
6198230625: global: Timer #4 started at tick 6198230625
6198369375: global: Timer #4 stopped at tick 6198369375. Duration: 138750
6198610625: global: Timer #2 started at tick 6198610625
6198687500: global: Timer #2 stopped at tick 6198687500. Duration: 76875
6198702500: global: Timer #4 started at tick 6198702500
6198756875: global: Timer #4 stopped at tick 6198756875. Duration: 54375
********************************************************************************
system.acctest.isp0.compute
   ========= Performance Analysis =============
   Setup Time:                      0.163998seconds
   Simulation Time:                 762.328631seconds
   System Clock:                    1.000000GHz
   Transistor Latency:              1ns
   Runtime:                         34882 cycles
   Runtime:                         34.882000 us
   Stalls:                          1 cycles
   Executed Nodes:                  34880 cycles

********************************************************************************
   ========= Performance Analysis =================
   Setup Time:                      163997835.000000ns
   Simulation Time:                 762328630947.000000ns
   System Clock:                    1.000000GHz
   Transistor Latency:              0ns
   Runtime:                         34882 cycles
   Runtime:                         0.000003 seconds
   Stalls:                          1 cycles
       Load Only:                   0 cycles
       Store Only:                  1 cycles
       Compute Only:                0 cycles
       Compute & Store:             0 cycles
       Load & Store:                0 cycles
       Load & Compute:              0 cycles
       Load & Compute & Store:      0 cycles
   Executed Nodes:                  34880 cycles
       Load Only:                   0 cycles
       Store Only:                  1 cycles
       Compute Only:                3453 cycles
       Compute & Store:             19014 cycles
       Load & Store:                0 cycles
       Load & Compute:              2467 cycles
       Load & Compute & Store:      9945 cycles

   ========= Runtime FU's ========= (Max | Avg) ===
   Counter FU's:                      10 | 0.118075
   Integer Add/Sub FU's:              76 | 0.082082
   Integer Mul/Div FU's:              11 | 0.043888
   Integer Shifter FU's:              42 | 0.055974
   Integer Bitwise FU's:               4 | 0.059443
   Floating Point Float Add/Sub:      53 | 0.116839
   Floating Point Double Add/Sub:      0 | 0.000000
   Floating Point Float Mul/Div:      76 | 0.625626
   Floating Point Double Mul/Div:      0 | 0.000000
   0 Cycle Compare FU's:              85 | 0.664984
   GEP Instruction FU's:              33 | 0.117424
   Type Conversion FU's:             110 | 0.379700

   ========= Static FU's ==========================
   Counter FU's:                    0
   Integer Add/Sub FU's:            0
   Integer Mul/Div FU's:            0
   Integer Shifter FU's:            0
   Integer Bitwise FU's:            0
   Floating Point Float Add/Sub:    0
   Floating Point Double Add/Sub:   0
   Floating Point Float Mul/Div:    0
   Floating Point Double Mul/Div:   0
   0 Cycle Compare FU's:            0
   GEP Instruction FU's:            0
   Type Conversion FU's:            0
   Other:                           0

   ========= Pipeline Register Usage =============
   Total Number of Registers:       1620
   Max Register Usage Per Cycle:    151
   Avg Register Usage Per Cycle:    58.744711
   Avg Register Size (Bytes):       5.073357

   ========= Memory Configuration =================
   Cache Bus Ports:                 0
   Shared Cache Size:               0kB
   Local Bus Ports:                 0
   Private SPM Size:                112kB
   Private Read Ports:              0
   Private Write Ports:             0
   Private Read Bus Width:          64
   Private Write Bus Width:         64
       Memory Reads:                0
       Memory Writes:               0
   ========= Power Analysis ======================
   FU Leakage Power:                1.637787 mW 
   FU Dynamic Power:                9.655087 mW 
   FU Total Power:                  11.292874 mW 

   Registers Leakage Power:          0.021654 mW 
   Registers Dynamic Power:          3.085961 mW 
       Register Reads (Bits):        2049133
       Register Writes (Bits):       2049168
   Registers Total Power:            3.107615 mW

   SPM Leakage Power:               0.061081 mW
   SPM Read Dynamic Power:          11.103730 mW
   SPM Write Dynamic Power:         7.385230 mW
   SPM Total Power:                 18.550041 mW

   SPM Energy Per Read Access:      0.142059 nJ
   SPM Energy Per Write Access:     0.255513 nJ

   Cache Leakage Power:             0.000000 mW
   Cache Read Dynamic Power:        0.000000 mW
   Cache Write Dynamic Power:       0.000000 mW
   Cache Total Power:               0.000000 mW

   Accelerator Power:               14.400490 mW
   Accelerator Power (SPM):         32.950531 mW
   Accelerator Power (Cache):       14.400490 mW

   ========= Area Analysis =======================
   FU Area:                         176023.796875 um^2 (0.176024 mm^2)
   Register Area:                   1760.064941 um^2 (0.001760 mm^2)
   SPM Area:                        2165.394891 um^2 (0.002165 mm^2)
   Cache Area:                      0.000000 um^2 (0.000000 mm^2)

   Accelerator Area:                177783.859375 um^2 (0.177784 mm^2)
   Accelerator Area (SPM):          179949.254266 um^2 (0.179949 mm^2)
   Accelerator Area (Cache):        177783.859375 um^2 (0.177784 mm^2)

   ========= SPM Resizing  =======================
   SPM Optimized Leakage Power:     0.005964 mW
   SPM Opt Area:                    422.108128 um^2

6198936875: global: Timer #2 started at tick 6198936875
6199002500: global: Timer #2 stopped at tick 6199002500. Duration: 65625
6199017500: global: Timer #4 started at tick 6199017500
6199054375: global: Timer #4 stopped at tick 6199054375. Duration: 36875
6200146875: global: Timer #7 started at tick 6200146875
6200800875: system.acctest.elem_matrix0_dma: SRC:0x0000000024030020, DST:0x00000000822ee780, LEN:65536
6200948750: global: Timer #7 stopped at tick 6200948750. Duration: 801875
6201309375: global: Timer #0 stopped at tick 6201309375. Duration: 7564375
6201323750: global: Number of accelerators running = 2
6201444375: global: Timer #0 started at tick 6201444375
6202015000: global: Timer #3 started at tick 6202015000
6202060625: global: Timer #4 started at tick 6202060625
6202095625: global: Timer #4 stopped at tick 6202095625. Duration: 35000
6202106875: global: Timer #5 started at tick 6202106875
6202121875: global: Timer #5 stopped at tick 6202121875. Duration: 15000
6202360625: global: Timer #3 stopped at tick 6202360625. Duration: 345625
6202428125: global: Timer #2 started at tick 6202428125
6202501250: global: Timer #2 stopped at tick 6202501250. Duration: 73125
6202847500: global: DAG ID = 0
6202865625: global: Node ID = 0
6202928125: global: Node deadline difference = -13513
6202946250: global: Predicted memory time / byte = 7.27596e-05 us/byte
6202964375: global: Predicted memory time = 1.22964 us
6202982500: global: Predicted memory time / byte = 7.27596e-05 us/byte
6203000625: global: Predicted memory time = 3.57628 us
6203063125: global: Predicted memory time / byte = 0.000297456 us/byte
6203081250: global: Predicted memory time = 5.027 us
6203099375: global: Predicted memory time / byte = 0 us/byte
6203117500: global: Predicted memory time = 0 us
6203135625: global: Predicted memory access size = 16900
6203153750: global: Predicted memory access size = 16900
6203215000: global: Predicted memory access size = 49152
6203233750: global: Predicted memory access size = 0
6203383750: global: Timer #6 started at tick 6203383750
6203779375: global: Timer #7 started at tick 6203779375
6204430000: system.acctest.grayscale0_dma: SRC:0x0000000027010224, DST:0x0000000025000020, LEN:49152
6204738750: global: Timer #7 stopped at tick 6204738750. Duration: 959375
6204886250: global: Timer #6 stopped at tick 6204886250. Duration: 1502500
6205023750: global: Timer #6 started at tick 6205023750
6205659375: global: Timer #7 started at tick 6205659375
6206375000: system.acctest.isp0_dma: SRC:0x0000000082148980, DST:0x0000000027000020, LEN:16900
6206523125: global: Timer #7 stopped at tick 6206523125. Duration: 863750
6206595625: global: Timer #6 stopped at tick 6206595625. Duration: 1571875
6206644375: global: Timer #0 stopped at tick 6206644375. Duration: 5200000
6206658750: global: Number of accelerators running = 3
6209959875: system.acctest.elem_matrix0_dma: Transfer completed in 9.159 us
6210050000: global: Timer #0 started at tick 6210050000
6210476875: global: Timer #1 started at tick 6210476875
6210900000: global: Timer #1 stopped at tick 6210900000. Duration: 423125
6211179375: global: DAG ID = 2
6211197500: global: Node ID = 0
6211264375: global: Node deadline difference = -3627
6211282500: global: Predicted memory time / byte = 7.27596e-05 us/byte
6211300625: global: Predicted memory time = 9.53674 us
6211318750: global: Predicted memory time / byte = 7.27596e-05 us/byte
6211336875: global: Predicted memory time = 4.76837 us
6211355000: global: Predicted memory time / byte = 0.000190956 us/byte
6211373125: global: Predicted memory time = 25.029 us
6211391250: global: Predicted memory time / byte = 0.000140564 us/byte
6211409375: global: Predicted memory time = 9.212 us
6211427500: global: Predicted memory access size = 131072
6211445625: global: Predicted memory access size = 131072
6211463750: global: Predicted memory access size = 65536
6211481875: global: Predicted memory access size = 65536
6211584375: global: Timer #6 started at tick 6211584375
6211823000: system.acctest.isp0_dma: Transfer completed in 5.448 us
6212145000: global: Timer #7 started at tick 6212145000
6212809000: system.acctest.elem_matrix0_dma: SRC:0x000000008225e600, DST:0x0000000024010020, LEN:65536
6212941250: global: Timer #7 stopped at tick 6212941250. Duration: 796250
6212970000: global: Timer #6 stopped at tick 6212970000. Duration: 1385625
6213071250: global: Timer #0 stopped at tick 6213071250. Duration: 3021250
6213085625: global: Number of accelerators running = 3
6213203125: global: Timer #0 started at tick 6213203125
6213541875: global: Timer #1 started at tick 6213541875
6213723750: global: Timer #1 stopped at tick 6213723750. Duration: 181875
6214036875: global: Timer #6 started at tick 6214036875
6214081250: global: Timer #7 started at tick 6214081250
6214604375: global: Timer #7 stopped at tick 6214604375. Duration: 523125
6214630000: global: Timer #6 stopped at tick 6214630000. Duration: 593125
6214755625: global: Timer #0 stopped at tick 6214755625. Duration: 1552500
6214770000: global: Number of accelerators running = 3
6217561000: system.acctest.grayscale0_dma: Transfer completed in 13.131 us
6217655625: global: Timer #0 started at tick 6217655625
6217986250: global: Timer #1 started at tick 6217986250
6218186875: global: Timer #1 stopped at tick 6218186875. Duration: 200625
6218471875: global: Timer #6 started at tick 6218471875
6218576250: global: Timer #7 started at tick 6218576250
6218974375: global: Timer #7 stopped at tick 6218974375. Duration: 398125
6219411250: global: Timer #6 stopped at tick 6219411250. Duration: 939375
6219523750: global: Timer #0 stopped at tick 6219523750. Duration: 1868125
6219538125: global: Number of accelerators running = 3
6224730000: system.acctest.elem_matrix0_dma: Transfer completed in 11.921 us
6224813750: global: Timer #0 started at tick 6224813750
6225146250: global: Timer #1 started at tick 6225146250
6225318750: global: Timer #1 stopped at tick 6225318750. Duration: 172500
6225550000: global: Timer #6 started at tick 6225550000
6225630625: global: Timer #7 started at tick 6225630625
6226653125: global: Timer #7 stopped at tick 6226653125. Duration: 1022500
6226980625: global: Timer #6 stopped at tick 6226980625. Duration: 1430625
6227077500: global: Timer #0 stopped at tick 6227077500. Duration: 2263750
6227091875: global: Number of accelerators running = 3
********************************************************************************
system.acctest.grayscale0.compute
   ========= Performance Analysis =============
   Setup Time:                      0.014324seconds
   Simulation Time:                 474.394082seconds
   System Clock:                    1.000000GHz
   Transistor Latency:              1ns
   Runtime:                         10263 cycles
   Runtime:                         10.263000 us
   Stalls:                          1 cycles
   Executed Nodes:                  10261 cycles

********************************************************************************
   ========= Performance Analysis =================
   Setup Time:                      14324117.000000ns
   Simulation Time:                 474394082400.000000ns
   System Clock:                    1.000000GHz
   Transistor Latency:              0ns
   Runtime:                         10263 cycles
   Runtime:                         0.000001 seconds
   Stalls:                          1 cycles
       Load Only:                   0 cycles
       Store Only:                  1 cycles
       Compute Only:                0 cycles
       Compute & Store:             0 cycles
       Load & Store:                0 cycles
       Load & Compute:              0 cycles
       Load & Compute & Store:      0 cycles
   Executed Nodes:                  10261 cycles
       Load Only:                   0 cycles
       Store Only:                  1 cycles
       Compute Only:                88 cycles
       Compute & Store:             344 cycles
       Load & Store:                0 cycles
       Load & Compute:              1981 cycles
       Load & Compute & Store:      7847 cycles

   ========= Runtime FU's ========= (Max | Avg) ===
   Counter FU's:                      24 | 0.199556
   Integer Add/Sub FU's:               0 | 0.000000
   Integer Mul/Div FU's:               8 | 0.199552
   Integer Shifter FU's:               0 | 0.000000
   Integer Bitwise FU's:               1 | 0.000097
   Floating Point Float Add/Sub:      49 | 0.114264
   Floating Point Double Add/Sub:      0 | 0.000000
   Floating Point Float Mul/Div:      42 | 0.114129
   Floating Point Double Mul/Div:      0 | 0.000000
   0 Cycle Compare FU's:               9 | 0.066626
   GEP Instruction FU's:              36 | 0.177452
   Type Conversion FU's:              76 | 0.401969

   ========= Static FU's ==========================
   Counter FU's:                    0
   Integer Add/Sub FU's:            0
   Integer Mul/Div FU's:            0
   Integer Shifter FU's:            0
   Integer Bitwise FU's:            0
   Floating Point Float Add/Sub:    0
   Floating Point Double Add/Sub:   0
   Floating Point Float Mul/Div:    0
   Floating Point Double Mul/Div:   0
   0 Cycle Compare FU's:            0
   GEP Instruction FU's:            0
   Type Conversion FU's:            0
   Other:                           0

   ========= Pipeline Register Usage =============
   Total Number of Registers:       235
   Max Register Usage Per Cycle:    90
   Avg Register Usage Per Cycle:    33.924291
   Avg Register Size (Bytes):       5.841147

   ========= Memory Configuration =================
   Cache Bus Ports:                 0
   Shared Cache Size:               0kB
   Local Bus Ports:                 0
   Private SPM Size:                176kB
   Private Read Ports:              0
   Private Write Ports:             0
   Private Read Bus Width:          64
   Private Write Bus Width:         64
       Memory Reads:                0
       Memory Writes:               0
   ========= Power Analysis ======================
   FU Leakage Power:                1.178269 mW 
   FU Dynamic Power:                0.617392 mW 
   FU Total Power:                  1.795662 mW 

   Registers Leakage Power:          0.014185 mW 
   Registers Dynamic Power:          0.101057 mW 
       Register Reads (Bits):        348165
       Register Writes (Bits):       348168
   Registers Total Power:            0.115242 mW

   SPM Leakage Power:               0.089881 mW
   SPM Read Dynamic Power:          6.997296 mW
   SPM Write Dynamic Power:         2.062375 mW
   SPM Total Power:                 9.149552 mW

   SPM Energy Per Read Access:      0.161778 nJ
   SPM Energy Per Write Access:     0.205661 nJ

   Cache Leakage Power:             0.000000 mW
   Cache Read Dynamic Power:        0.000000 mW
   Cache Write Dynamic Power:       0.000000 mW
   Cache Total Power:               0.000000 mW

   Accelerator Power:               1.910904 mW
   Accelerator Power (SPM):         11.060456 mW
   Accelerator Power (Cache):       1.910904 mW

   ========= Area Analysis =======================
   FU Area:                         143348.187500 um^2 (0.143348 mm^2)
   Register Area:                   1152.968140 um^2 (0.001153 mm^2)
   SPM Area:                        3573.642862 um^2 (0.003574 mm^2)
   Cache Area:                      0.000000 um^2 (0.000000 mm^2)

   Accelerator Area:                144501.156250 um^2 (0.144501 mm^2)
   Accelerator Area (SPM):          148074.799112 um^2 (0.148075 mm^2)
   Accelerator Area (Cache):        144501.156250 um^2 (0.144501 mm^2)

   ========= SPM Resizing  =======================
   SPM Optimized Leakage Power:     0.003633 mW
   SPM Opt Area:                    364.024374 um^2

6229204375: global: Timer #0 started at tick 6229204375
6229583750: global: Timer #3 started at tick 6229583750
6229664375: global: Timer #4 started at tick 6229664375
6229779375: global: Timer #4 stopped at tick 6229779375. Duration: 115000
6229795000: global: Timer #5 started at tick 6229795000
6229810000: global: Timer #5 stopped at tick 6229810000. Duration: 15000
6230057500: global: Timer #3 stopped at tick 6230057500. Duration: 473750
6230115000: global: Timer #2 started at tick 6230115000
6230185000: global: Timer #2 stopped at tick 6230185000. Duration: 70000
6230421250: global: DAG ID = 0
6230433750: global: Node ID = 1
6230446875: global: Node deadline difference = -13522
6230459375: global: Predicted memory time / byte = 0.00020312 us/byte
6230471875: global: Predicted memory time = 9.98373 us
6230484375: global: Predicted memory time / byte = 0.00020312 us/byte
6230496875: global: Predicted memory time = 13.3116 us
6230509375: global: Predicted memory time / byte = 0.000266337 us/byte
6230521875: global: Predicted memory time = 13.091 us
6230534375: global: Predicted memory time / byte = 0 us/byte
6230546875: global: Predicted memory time = 0 us
6230559375: global: Predicted memory access size = 49152
6230571875: global: Predicted memory access size = 49152
6230584375: global: Predicted memory access size = 65536
6230596875: global: Predicted memory access size = 0
6230662500: global: Timer #6 started at tick 6230662500
6231138750: global: Timer #7 started at tick 6231138750
6231895875: system.acctest.convolution0_dma: SRC:0x000000002501c020, DST:0x0000000022000020, LEN:65536
6232151875: global: Timer #7 stopped at tick 6232151875. Duration: 1013125
6232181875: global: Timer #6 stopped at tick 6232181875. Duration: 1519375
6232305000: global: Timer #0 stopped at tick 6232305000. Duration: 3100625
6232319375: global: Number of accelerators running = 3
********************************************************************************
system.acctest.elem_matrix0.compute
   ========= Performance Analysis =============
   Setup Time:                      4.736437seconds
   Simulation Time:                 530.970150seconds
   System Clock:                    1.000000GHz
   Transistor Latency:              1ns
   Runtime:                         10932 cycles
   Runtime:                         10.932000 us
   Stalls:                          1 cycles
   Executed Nodes:                  10930 cycles

********************************************************************************
   ========= Performance Analysis =================
   Setup Time:                      4736437044.000000ns
   Simulation Time:                 530970149861.000000ns
   System Clock:                    1.000000GHz
   Transistor Latency:              0ns
   Runtime:                         10932 cycles
   Runtime:                         0.000001 seconds
   Stalls:                          1 cycles
       Load Only:                   0 cycles
       Store Only:                  1 cycles
       Compute Only:                0 cycles
       Compute & Store:             0 cycles
       Load & Store:                0 cycles
       Load & Compute:              0 cycles
       Load & Compute & Store:      0 cycles
   Executed Nodes:                  10930 cycles
       Load Only:                   0 cycles
       Store Only:                  4 cycles
       Compute Only:                1 cycles
       Compute & Store:             21 cycles
       Load & Store:                0 cycles
       Load & Compute:              6 cycles
       Load & Compute & Store:      10898 cycles

   ========= Runtime FU's ========= (Max | Avg) ===
   Counter FU's:                      32 | 0.046838
   Integer Add/Sub FU's:               0 | 0.000000
   Integer Mul/Div FU's:               0 | 0.000000
   Integer Shifter FU's:               0 | 0.000000
   Integer Bitwise FU's:               1 | 0.000091
   Floating Point Float Add/Sub:       0 | 0.000000
   Floating Point Double Add/Sub:      0 | 0.000000
   Floating Point Float Mul/Div:      34 | 0.044252
   Floating Point Double Mul/Div:      0 | 0.000000
   0 Cycle Compare FU's:             102 | 0.046945
   GEP Instruction FU's:              96 | 0.046835
   Type Conversion FU's:               7 | 0.006782

   ========= Static FU's ==========================
   Counter FU's:                    0
   Integer Add/Sub FU's:            0
   Integer Mul/Div FU's:            0
   Integer Shifter FU's:            0
   Integer Bitwise FU's:            0
   Floating Point Float Add/Sub:    0
   Floating Point Double Add/Sub:   0
   Floating Point Float Mul/Div:    0
   Floating Point Double Mul/Div:   0
   0 Cycle Compare FU's:            0
   GEP Instruction FU's:            0
   Type Conversion FU's:            0
   Other:                           0

   ========= Pipeline Register Usage =============
   Total Number of Registers:       5641
   Max Register Usage Per Cycle:    137
   Avg Register Usage Per Cycle:    12.130992
   Avg Register Size (Bytes):       5.980606

   ========= Memory Configuration =================
   Cache Bus Ports:                 0
   Shared Cache Size:               0kB
   Local Bus Ports:                 0
   Private SPM Size:                256kB
   Private Read Ports:              0
   Private Write Ports:             0
   Private Read Bus Width:          64
   Private Write Bus Width:         64
       Memory Reads:                0
       Memory Writes:               0
   ========= Power Analysis ======================
   FU Leakage Power:                0.045377 mW 
   FU Dynamic Power:                0.142576 mW 
   FU Total Power:                  0.187953 mW 

   Registers Leakage Power:          0.005281 mW 
   Registers Dynamic Power:          0.015326 mW 
       Register Reads (Bits):        132616
       Register Writes (Bits):       133658
   Registers Total Power:            0.020607 mW

   SPM Leakage Power:               0.104100 mW
   SPM Read Dynamic Power:          2.785289 mW
   SPM Write Dynamic Power:         2.044305 mW
   SPM Total Power:                 4.933694 mW

   SPM Energy Per Read Access:      0.170493 nJ
   SPM Energy Per Write Access:     0.218190 nJ

   Cache Leakage Power:             0.000000 mW
   Cache Read Dynamic Power:        0.000000 mW
   Cache Write Dynamic Power:       0.000000 mW
   Cache Total Power:               0.000000 mW

   Accelerator Power:               0.208559 mW
   Accelerator Power (SPM):         5.142254 mW
   Accelerator Power (Cache):       0.208559 mW

   ========= Area Analysis =======================
   FU Area:                         5472.068359 um^2 (0.005472 mm^2)
   Register Area:                   429.271088 um^2 (0.000429 mm^2)
   SPM Area:                        2177.365505 um^2 (0.002177 mm^2)
   Cache Area:                      0.000000 um^2 (0.000000 mm^2)

   Accelerator Area:                5901.339355 um^2 (0.005901 mm^2)
   Accelerator Area (SPM):          8078.704860 um^2 (0.008079 mm^2)
   Accelerator Area (Cache):        5901.339355 um^2 (0.005901 mm^2)

   ========= SPM Resizing  =======================
   SPM Optimized Leakage Power:     0.004248 mW
   SPM Opt Area:                    178.524902 um^2

6237553125: global: Timer #0 started at tick 6237553125
6237858125: global: Timer #3 started at tick 6237858125
6237926875: global: Timer #4 started at tick 6237926875
6237963750: global: Timer #4 stopped at tick 6237963750. Duration: 36875
6237975000: global: Timer #5 started at tick 6237975000
6237990000: global: Timer #5 stopped at tick 6237990000. Duration: 15000
6238215625: global: Timer #3 stopped at tick 6238215625. Duration: 357500
6238265000: global: Timer #2 started at tick 6238265000
6238456250: global: Timer #2 stopped at tick 6238456250. Duration: 191250
6238693125: global: DAG ID = 2
6238705625: global: Node ID = 1
6238718750: global: Node deadline difference = -3657
6238731250: global: Predicted memory time / byte = 0.00020312 us/byte
6238743750: global: Predicted memory time = 26.6233 us
6238756250: global: Predicted memory time / byte = 0.00020312 us/byte
6238768750: global: Predicted memory time = 13.3116 us
6238781250: global: Predicted memory time / byte = 0.000181824 us/byte
6238793750: global: Predicted memory time = 11.916 us
6238806250: global: Predicted memory time / byte = 0 us/byte
6238818750: global: Predicted memory time = 0 us
6238831250: global: Predicted memory access size = 131072
6238843750: global: Predicted memory access size = 65536
6238856250: global: Predicted memory access size = 65536
6238868750: global: Predicted memory access size = 0
6238943750: global: Timer #6 started at tick 6238943750
6239051250: global: Timer #7 started at tick 6239051250
6239697000: system.acctest.elem_matrix0_dma: SRC:0x000000008226e600, DST:0x0000000024010020, LEN:65536
6239820625: global: Timer #7 stopped at tick 6239820625. Duration: 769375
6239838750: global: Timer #6 stopped at tick 6239838750. Duration: 895000
6239935000: global: Timer #0 stopped at tick 6239935000. Duration: 2381875
6239949375: global: Number of accelerators running = 3
6243962875: system.acctest.convolution0_dma: Transfer completed in 12.067 us
6244056875: global: Timer #0 started at tick 6244056875
6244398750: global: Timer #1 started at tick 6244398750
6244580625: global: Timer #1 stopped at tick 6244580625. Duration: 181875
6244813750: global: Timer #6 started at tick 6244813750
6244999375: global: Timer #7 started at tick 6244999375
6245649500: system.acctest.convolution0_dma: SRC:0x00000000820b33c0, DST:0x0000000022030020, LEN:100
6245745500: system.acctest.convolution0_dma: Transfer completed in 0.096 us
6245838750: global: Timer #7 stopped at tick 6245838750. Duration: 839375
6245872500: global: Timer #6 stopped at tick 6245872500. Duration: 1058750
6245974375: global: Timer #0 stopped at tick 6245974375. Duration: 1917500
6245988750: global: Number of accelerators running = 3
6246103125: global: Timer #0 started at tick 6246103125
6246592500: global: Timer #6 started at tick 6246592500
6246651250: global: Timer #7 started at tick 6246651250
6247728125: global: Timer #7 stopped at tick 6247728125. Duration: 1076875
6247783125: global: Timer #6 stopped at tick 6247783125. Duration: 1190625
6247878125: global: Timer #0 stopped at tick 6247878125. Duration: 1775000
6247892500: global: Number of accelerators running = 3
********************************************************************************
system.acctest.isp0.compute
   ========= Performance Analysis =============
   Setup Time:                      0.448283seconds
   Simulation Time:                 1216.958994seconds
   System Clock:                    1.000000GHz
   Transistor Latency:              1ns
   Runtime:                         34885 cycles
   Runtime:                         34.885000 us
   Stalls:                          1 cycles
   Executed Nodes:                  34883 cycles

********************************************************************************
   ========= Performance Analysis =================
   Setup Time:                      448282601.000000ns
   Simulation Time:                 1216958994260.000000ns
   System Clock:                    1.000000GHz
   Transistor Latency:              0ns
   Runtime:                         34885 cycles
   Runtime:                         0.000003 seconds
   Stalls:                          1 cycles
       Load Only:                   0 cycles
       Store Only:                  1 cycles
       Compute Only:                0 cycles
       Compute & Store:             0 cycles
       Load & Store:                0 cycles
       Load & Compute:              0 cycles
       Load & Compute & Store:      0 cycles
   Executed Nodes:                  34883 cycles
       Load Only:                   0 cycles
       Store Only:                  1 cycles
       Compute Only:                3339 cycles
       Compute & Store:             19123 cycles
       Load & Store:                0 cycles
       Load & Compute:              2447 cycles
       Load & Compute & Store:      9973 cycles

   ========= Runtime FU's ========= (Max | Avg) ===
   Counter FU's:                      10 | 0.118065
   Integer Add/Sub FU's:              72 | 0.086619
   Integer Mul/Div FU's:              11 | 0.043884
   Integer Shifter FU's:              47 | 0.050108
   Integer Bitwise FU's:               4 | 0.059438
   Floating Point Float Add/Sub:      50 | 0.123445
   Floating Point Double Add/Sub:      0 | 0.000000
   Floating Point Float Mul/Div:      83 | 0.571371
   Floating Point Double Mul/Div:      0 | 0.000000
   0 Cycle Compare FU's:              89 | 0.634808
   GEP Instruction FU's:              33 | 0.117414
   Type Conversion FU's:             105 | 0.398882

   ========= Static FU's ==========================
   Counter FU's:                    0
   Integer Add/Sub FU's:            0
   Integer Mul/Div FU's:            0
   Integer Shifter FU's:            0
   Integer Bitwise FU's:            0
   Floating Point Float Add/Sub:    0
   Floating Point Double Add/Sub:   0
   Floating Point Float Mul/Div:    0
   Floating Point Double Mul/Div:   0
   0 Cycle Compare FU's:            0
   GEP Instruction FU's:            0
   Type Conversion FU's:            0
   Other:                           0

   ========= Pipeline Register Usage =============
   Total Number of Registers:       1620
   Max Register Usage Per Cycle:    151
   Avg Register Usage Per Cycle:    58.739659
   Avg Register Size (Bytes):       5.073357

   ========= Memory Configuration =================
   Cache Bus Ports:                 0
   Shared Cache Size:               0kB
   Local Bus Ports:                 0
   Private SPM Size:                112kB
   Private Read Ports:              0
   Private Write Ports:             0
   Private Read Bus Width:          64
   Private Write Bus Width:         64
       Memory Reads:                0
       Memory Writes:               0
   ========= Power Analysis ======================
   FU Leakage Power:                1.590976 mW 
   FU Dynamic Power:                9.643702 mW 
   FU Total Power:                  11.234677 mW 

   Registers Leakage Power:          0.021654 mW 
   Registers Dynamic Power:          3.086227 mW 
       Register Reads (Bits):        2049133
       Register Writes (Bits):       2049168
   Registers Total Power:            3.107881 mW

   SPM Leakage Power:               0.061081 mW
   SPM Read Dynamic Power:          15.102444 mW
   SPM Write Dynamic Power:         10.618341 mW
   SPM Total Power:                 25.781867 mW

   SPM Energy Per Read Access:      0.142059 nJ
   SPM Energy Per Write Access:     0.255513 nJ

   Cache Leakage Power:             0.000000 mW
   Cache Read Dynamic Power:        0.000000 mW
   Cache Write Dynamic Power:       0.000000 mW
   Cache Total Power:               0.000000 mW

   Accelerator Power:               14.342558 mW
   Accelerator Power (SPM):         40.124425 mW
   Accelerator Power (Cache):       14.342558 mW

   ========= Area Analysis =======================
   FU Area:                         171081.250000 um^2 (0.171081 mm^2)
   Register Area:                   1760.064941 um^2 (0.001760 mm^2)
   SPM Area:                        2165.394891 um^2 (0.002165 mm^2)
   Cache Area:                      0.000000 um^2 (0.000000 mm^2)

   Accelerator Area:                172841.312500 um^2 (0.172841 mm^2)
   Accelerator Area (SPM):          175006.707391 um^2 (0.175007 mm^2)
   Accelerator Area (Cache):        172841.312500 um^2 (0.172841 mm^2)

   ========= SPM Resizing  =======================
   SPM Optimized Leakage Power:     0.005964 mW
   SPM Opt Area:                    422.108128 um^2

6249463125: global: Timer #0 started at tick 6249463125
6249710000: global: Timer #3 started at tick 6249710000
6249911875: global: Timer #4 started at tick 6249911875
6249946875: global: Timer #4 stopped at tick 6249946875. Duration: 35000
6249958125: global: Timer #5 started at tick 6249958125
6249973125: global: Timer #5 stopped at tick 6249973125. Duration: 15000
6250197500: global: Timer #3 stopped at tick 6250197500. Duration: 487500
6250246875: global: Timer #2 started at tick 6250246875
6250311250: global: Timer #2 stopped at tick 6250311250. Duration: 64375
6250549375: global: DAG ID = 1
6250561875: global: Node ID = 0
6250575000: global: Node deadline difference = -13927
6250587500: global: Predicted memory time / byte = 7.27596e-05 us/byte
6250600000: global: Predicted memory time = 1.22964 us
6250612500: global: Predicted memory time / byte = 7.27596e-05 us/byte
6250625000: global: Predicted memory time = 3.57628 us
6250637500: global: Predicted memory time / byte = 0.000398225 us/byte
6250650000: global: Predicted memory time = 6.73 us
6250662500: global: Predicted memory time / byte = 0 us/byte
6250675000: global: Predicted memory time = 0 us
6250687500: global: Predicted memory access size = 16900
6250700000: global: Predicted memory access size = 16900
6250712500: global: Predicted memory access size = 49152
6250725000: global: Predicted memory access size = 0
6250824375: global: Timer #6 started at tick 6250824375
6250902500: global: Timer #7 started at tick 6250902500
6251543750: system.acctest.grayscale0_dma: SRC:0x0000000027004224, DST:0x0000000025000020, LEN:49152
6251678125: global: Timer #7 stopped at tick 6251678125. Duration: 775625
6251701875: global: Timer #6 stopped at tick 6251701875. Duration: 877500
6251783125: global: Timer #0 stopped at tick 6251783125. Duration: 2320000
6251797500: global: Number of accelerators running = 3
6251810000: system.acctest.elem_matrix0_dma: Transfer completed in 12.113 us
6251913750: global: Timer #0 started at tick 6251913750
6252256250: global: Timer #1 started at tick 6252256250
6252440625: global: Timer #1 stopped at tick 6252440625. Duration: 184375
6252688750: global: Timer #6 started at tick 6252688750
6252759375: global: Timer #7 started at tick 6252759375
6253787500: global: Timer #7 stopped at tick 6253787500. Duration: 1028125
6253834375: global: Timer #6 stopped at tick 6253834375. Duration: 1145625
6253957500: global: Timer #0 stopped at tick 6253957500. Duration: 2043750
6253971875: global: Number of accelerators running = 3
6259347750: system.acctest.grayscale0_dma: Transfer completed in 7.804 us
6259433125: global: Timer #0 started at tick 6259433125
6259757500: global: Timer #1 started at tick 6259757500
6259937500: global: Timer #1 stopped at tick 6259937500. Duration: 180000
6260238750: global: Timer #6 started at tick 6260238750
6260281875: global: Timer #7 started at tick 6260281875
6260657500: global: Timer #7 stopped at tick 6260657500. Duration: 375625
6260700000: global: Timer #6 stopped at tick 6260700000. Duration: 461250
6260803125: global: Timer #0 stopped at tick 6260803125. Duration: 1370000
6260817500: global: Number of accelerators running = 3
********************************************************************************
system.acctest.elem_matrix0.compute
   ========= Performance Analysis =============
   Setup Time:                      10.033252seconds
   Simulation Time:                 268.002517seconds
   System Clock:                    1.000000GHz
   Transistor Latency:              1ns
   Runtime:                         10932 cycles
   Runtime:                         10.932000 us
   Stalls:                          0 cycles
   Executed Nodes:                  10931 cycles

********************************************************************************
   ========= Performance Analysis =================
   Setup Time:                      10033252452.000000ns
   Simulation Time:                 268002517126.999969ns
   System Clock:                    1.000000GHz
   Transistor Latency:              0ns
   Runtime:                         10932 cycles
   Runtime:                         0.000001 seconds
   Stalls:                          0 cycles
       Load Only:                   0 cycles
       Store Only:                  0 cycles
       Compute Only:                0 cycles
       Compute & Store:             0 cycles
       Load & Store:                0 cycles
       Load & Compute:              0 cycles
       Load & Compute & Store:      0 cycles
   Executed Nodes:                  10931 cycles
       Load Only:                   0 cycles
       Store Only:                  5 cycles
       Compute Only:                1 cycles
       Compute & Store:             21 cycles
       Load & Store:                0 cycles
       Load & Compute:              7 cycles
       Load & Compute & Store:      10897 cycles

   ========= Runtime FU's ========= (Max | Avg) ===
   Counter FU's:                      32 | 0.046838
   Integer Add/Sub FU's:               0 | 0.000000
   Integer Mul/Div FU's:               0 | 0.000000
   Integer Shifter FU's:               0 | 0.000000
   Integer Bitwise FU's:               1 | 0.000091
   Floating Point Float Add/Sub:      34 | 0.044252
   Floating Point Double Add/Sub:      0 | 0.000000
   Floating Point Float Mul/Div:       0 | 0.000000
   Floating Point Double Mul/Div:      0 | 0.000000
   0 Cycle Compare FU's:             102 | 0.046974
   GEP Instruction FU's:              96 | 0.046835
   Type Conversion FU's:               7 | 0.006782

   ========= Static FU's ==========================
   Counter FU's:                    0
   Integer Add/Sub FU's:            0
   Integer Mul/Div FU's:            0
   Integer Shifter FU's:            0
   Integer Bitwise FU's:            0
   Floating Point Float Add/Sub:    0
   Floating Point Double Add/Sub:   0
   Floating Point Float Mul/Div:    0
   Floating Point Double Mul/Div:   0
   0 Cycle Compare FU's:            0
   GEP Instruction FU's:            0
   Type Conversion FU's:            0
   Other:                           0

   ========= Pipeline Register Usage =============
   Total Number of Registers:       5641
   Max Register Usage Per Cycle:    138
   Avg Register Usage Per Cycle:    12.130992
   Avg Register Size (Bytes):       5.980606

   ========= Memory Configuration =================
   Cache Bus Ports:                 0
   Shared Cache Size:               0kB
   Local Bus Ports:                 0
   Private SPM Size:                256kB
   Private Read Ports:              0
   Private Write Ports:             0
   Private Read Bus Width:          64
   Private Write Bus Width:         64
       Memory Reads:                0
       Memory Writes:               0
   ========= Power Analysis ======================
   FU Leakage Power:                0.519269 mW 
   FU Dynamic Power:                0.154621 mW 
   FU Total Power:                  0.673890 mW 

   Registers Leakage Power:          0.005281 mW 
   Registers Dynamic Power:          0.015326 mW 
       Register Reads (Bits):        132616
       Register Writes (Bits):       133658
   Registers Total Power:            0.020607 mW

   SPM Leakage Power:               0.104100 mW
   SPM Read Dynamic Power:          3.776796 mW
   SPM Write Dynamic Power:         2.457440 mW
   SPM Total Power:                 6.338336 mW

   SPM Energy Per Read Access:      0.170493 nJ
   SPM Energy Per Write Access:     0.218190 nJ

   Cache Leakage Power:             0.000000 mW
   Cache Read Dynamic Power:        0.000000 mW
   Cache Write Dynamic Power:       0.000000 mW
   Cache Total Power:               0.000000 mW

   Accelerator Power:               0.694497 mW
   Accelerator Power (SPM):         7.032833 mW
   Accelerator Power (Cache):       0.694497 mW

   ========= Area Analysis =======================
   FU Area:                         70212.562500 um^2 (0.070213 mm^2)
   Register Area:                   429.271088 um^2 (0.000429 mm^2)
   SPM Area:                        2177.365505 um^2 (0.002177 mm^2)
   Cache Area:                      0.000000 um^2 (0.000000 mm^2)

   Accelerator Area:                70641.835938 um^2 (0.070642 mm^2)
   Accelerator Area (SPM):          72819.201442 um^2 (0.072819 mm^2)
   Accelerator Area (Cache):        70641.835938 um^2 (0.070642 mm^2)

   ========= SPM Resizing  =======================
   SPM Optimized Leakage Power:     0.004248 mW
   SPM Opt Area:                    178.524902 um^2

6264691875: global: Timer #0 started at tick 6264691875
6264961875: global: Timer #3 started at tick 6264961875
6264999375: global: Timer #4 started at tick 6264999375
6265096875: global: Timer #4 stopped at tick 6265096875. Duration: 97500
6265112500: global: Timer #5 started at tick 6265112500
6265127500: global: Timer #5 stopped at tick 6265127500. Duration: 15000
6265345625: global: Timer #3 stopped at tick 6265345625. Duration: 383750
6265396250: global: Timer #2 started at tick 6265396250
6265549375: global: Timer #2 stopped at tick 6265549375. Duration: 153125
6265771250: global: DAG ID = 2
6265783750: global: Node ID = 2
6265796875: global: Node deadline difference = -3687
6265809375: global: Predicted memory time / byte = 0.000205754 us/byte
6265821875: global: Predicted memory time = 26.9686 us
6265834375: global: Predicted memory time / byte = 0.000205754 us/byte
6265846875: global: Predicted memory time = 13.4843 us
6265859375: global: Predicted memory time / byte = 0.000185165 us/byte
6265871875: global: Predicted memory time = 12.135 us
6265884375: global: Predicted memory time / byte = 0 us/byte
6265896875: global: Predicted memory time = 0 us
6265909375: global: Predicted memory access size = 131072
6265921875: global: Predicted memory access size = 65536
6265934375: global: Predicted memory access size = 65536
6265946875: global: Predicted memory access size = 0
6266021250: global: Timer #6 started at tick 6266021250
6266208750: global: Timer #7 started at tick 6266208750
6267227500: global: Timer #7 stopped at tick 6267227500. Duration: 1018750
6267383750: global: Timer #6 stopped at tick 6267383750. Duration: 1362500
6267455625: global: Timer #0 stopped at tick 6267455625. Duration: 2763750
6267470000: global: Number of accelerators running = 3
********************************************************************************
system.acctest.grayscale0.compute
   ========= Performance Analysis =============
   Setup Time:                      0.010716seconds
   Simulation Time:                 321.968737seconds
   System Clock:                    1.000000GHz
   Transistor Latency:              1ns
   Runtime:                         10263 cycles
   Runtime:                         10.263000 us
   Stalls:                          1 cycles
   Executed Nodes:                  10261 cycles

********************************************************************************
   ========= Performance Analysis =================
   Setup Time:                      10716282.000000ns
   Simulation Time:                 321968737382.000000ns
   System Clock:                    1.000000GHz
   Transistor Latency:              0ns
   Runtime:                         10263 cycles
   Runtime:                         0.000001 seconds
   Stalls:                          1 cycles
       Load Only:                   0 cycles
       Store Only:                  1 cycles
       Compute Only:                0 cycles
       Compute & Store:             0 cycles
       Load & Store:                0 cycles
       Load & Compute:              0 cycles
       Load & Compute & Store:      0 cycles
   Executed Nodes:                  10261 cycles
       Load Only:                   0 cycles
       Store Only:                  1 cycles
       Compute Only:                88 cycles
       Compute & Store:             344 cycles
       Load & Store:                0 cycles
       Load & Compute:              1981 cycles
       Load & Compute & Store:      7847 cycles

   ========= Runtime FU's ========= (Max | Avg) ===
   Counter FU's:                      24 | 0.199556
   Integer Add/Sub FU's:               0 | 0.000000
   Integer Mul/Div FU's:               8 | 0.199552
   Integer Shifter FU's:               0 | 0.000000
   Integer Bitwise FU's:               1 | 0.000097
   Floating Point Float Add/Sub:      49 | 0.114264
   Floating Point Double Add/Sub:      0 | 0.000000
   Floating Point Float Mul/Div:      42 | 0.114129
   Floating Point Double Mul/Div:      0 | 0.000000
   0 Cycle Compare FU's:               9 | 0.066626
   GEP Instruction FU's:              36 | 0.177452
   Type Conversion FU's:              76 | 0.401969

   ========= Static FU's ==========================
   Counter FU's:                    0
   Integer Add/Sub FU's:            0
   Integer Mul/Div FU's:            0
   Integer Shifter FU's:            0
   Integer Bitwise FU's:            0
   Floating Point Float Add/Sub:    0
   Floating Point Double Add/Sub:   0
   Floating Point Float Mul/Div:    0
   Floating Point Double Mul/Div:   0
   0 Cycle Compare FU's:            0
   GEP Instruction FU's:            0
   Type Conversion FU's:            0
   Other:                           0

   ========= Pipeline Register Usage =============
   Total Number of Registers:       235
   Max Register Usage Per Cycle:    90
   Avg Register Usage Per Cycle:    33.924291
   Avg Register Size (Bytes):       5.841147

   ========= Memory Configuration =================
   Cache Bus Ports:                 0
   Shared Cache Size:               0kB
   Local Bus Ports:                 0
   Private SPM Size:                176kB
   Private Read Ports:              0
   Private Write Ports:             0
   Private Read Bus Width:          64
   Private Write Bus Width:         64
       Memory Reads:                0
       Memory Writes:               0
   ========= Power Analysis ======================
   FU Leakage Power:                1.178269 mW 
   FU Dynamic Power:                0.617392 mW 
   FU Total Power:                  1.795662 mW 

   Registers Leakage Power:          0.014185 mW 
   Registers Dynamic Power:          0.101057 mW 
       Register Reads (Bits):        348165
       Register Writes (Bits):       348168
   Registers Total Power:            0.115242 mW

   SPM Leakage Power:               0.089881 mW
   SPM Read Dynamic Power:          10.232207 mW
   SPM Write Dynamic Power:         5.980668 mW
   SPM Total Power:                 16.302756 mW

   SPM Energy Per Read Access:      0.161778 nJ
   SPM Energy Per Write Access:     0.205661 nJ

   Cache Leakage Power:             0.000000 mW
   Cache Read Dynamic Power:        0.000000 mW
   Cache Write Dynamic Power:       0.000000 mW
   Cache Total Power:               0.000000 mW

   Accelerator Power:               1.910904 mW
   Accelerator Power (SPM):         18.213660 mW
   Accelerator Power (Cache):       1.910904 mW

   ========= Area Analysis =======================
   FU Area:                         143348.187500 um^2 (0.143348 mm^2)
   Register Area:                   1152.968140 um^2 (0.001153 mm^2)
   SPM Area:                        3573.642862 um^2 (0.003574 mm^2)
   Cache Area:                      0.000000 um^2 (0.000000 mm^2)

   Accelerator Area:                144501.156250 um^2 (0.144501 mm^2)
   Accelerator Area (SPM):          148074.799112 um^2 (0.148075 mm^2)
   Accelerator Area (Cache):        144501.156250 um^2 (0.144501 mm^2)

   ========= SPM Resizing  =======================
   SPM Optimized Leakage Power:     0.003633 mW
   SPM Opt Area:                    364.024374 um^2

6270893750: global: Timer #0 started at tick 6270893750
6271191875: global: Timer #3 started at tick 6271191875
6271272500: global: Timer #4 started at tick 6271272500
6271381250: global: Timer #4 stopped at tick 6271381250. Duration: 108750
6271385000: global: Timer #5 started at tick 6271385000
6271390000: global: Timer #5 stopped at tick 6271390000. Duration: 5000
6271614375: global: Timer #3 stopped at tick 6271614375. Duration: 422500
6271851250: global: Timer #3 started at tick 6271851250
6271892500: global: Timer #4 started at tick 6271892500
6271933750: global: Timer #4 stopped at tick 6271933750. Duration: 41250
6271945000: global: Timer #5 started at tick 6271945000
6271960000: global: Timer #5 stopped at tick 6271960000. Duration: 15000
6272207500: global: Timer #3 stopped at tick 6272207500. Duration: 356250
6272266875: global: Timer #2 started at tick 6272266875
6272338750: global: Timer #2 stopped at tick 6272338750. Duration: 71875
6272358125: global: Timer #4 started at tick 6272358125
6272404375: global: Timer #4 stopped at tick 6272404375. Duration: 46250
6272614375: global: Timer #2 started at tick 6272614375
6272702500: global: Timer #2 stopped at tick 6272702500. Duration: 88125
6272721875: global: Timer #4 started at tick 6272721875
6272761875: global: Timer #4 stopped at tick 6272761875. Duration: 40000
6273147500: global: Timer #7 started at tick 6273147500
6273796625: system.acctest.grayscale0_dma: SRC:0x000000002500c020, DST:0x0000000082158d40, LEN:65536
6273949375: global: Timer #7 stopped at tick 6273949375. Duration: 801875
6274227500: global: Timer #0 stopped at tick 6274227500. Duration: 3333750
6274241875: global: Number of accelerators running = 3
********************************************************************************
system.acctest.elem_matrix0.compute
   ========= Performance Analysis =============
   Setup Time:                      9.902518seconds
   Simulation Time:                 222.003169seconds
   System Clock:                    1.000000GHz
   Transistor Latency:              1ns
   Runtime:                         8316 cycles
   Runtime:                         8.316000 us
   Stalls:                          82 cycles
   Executed Nodes:                  8233 cycles

********************************************************************************
   ========= Performance Analysis =================
   Setup Time:                      9902518336.000000ns
   Simulation Time:                 222003168978.000000ns
   System Clock:                    1.000000GHz
   Transistor Latency:              0ns
   Runtime:                         8316 cycles
   Runtime:                         0.000001 seconds
   Stalls:                          82 cycles
       Load Only:                   0 cycles
       Store Only:                  77 cycles
       Compute Only:                0 cycles
       Compute & Store:             5 cycles
       Load & Store:                0 cycles
       Load & Compute:              0 cycles
       Load & Compute & Store:      0 cycles
   Executed Nodes:                  8233 cycles
       Load Only:                   0 cycles
       Store Only:                  11 cycles
       Compute Only:                1827 cycles
       Compute & Store:             3453 cycles
       Load & Store:                0 cycles
       Load & Compute:              774 cycles
       Load & Compute & Store:      2168 cycles

   ========= Runtime FU's ========= (Max | Avg) ===
   Counter FU's:                      32 | 0.061572
   Integer Add/Sub FU's:               0 | 0.000000
   Integer Mul/Div FU's:               0 | 0.000000
   Integer Shifter FU's:               0 | 0.000000
   Integer Bitwise FU's:               1 | 0.000120
   Floating Point Float Add/Sub:      80 | 0.302014
   Floating Point Double Add/Sub:      0 | 0.000000
   Floating Point Float Mul/Div:      35 | 0.056511
   Floating Point Double Mul/Div:      0 | 0.000000
   0 Cycle Compare FU's:              15 | 0.024828
   GEP Instruction FU's:              64 | 0.061568
   Type Conversion FU's:              66 | 0.120964

   ========= Static FU's ==========================
   Counter FU's:                    0
   Integer Add/Sub FU's:            0
   Integer Mul/Div FU's:            0
   Integer Shifter FU's:            0
   Integer Bitwise FU's:            0
   Floating Point Float Add/Sub:    0
   Floating Point Double Add/Sub:   0
   Floating Point Float Mul/Div:    0
   Floating Point Double Mul/Div:   0
   0 Cycle Compare FU's:            0
   GEP Instruction FU's:            0
   Type Conversion FU's:            0
   Other:                           0

   ========= Pipeline Register Usage =============
   Total Number of Registers:       5641
   Max Register Usage Per Cycle:    126
   Avg Register Usage Per Cycle:    27.706590
   Avg Register Size (Bytes):       5.993295

   ========= Memory Configuration =================
   Cache Bus Ports:                 0
   Shared Cache Size:               0kB
   Local Bus Ports:                 0
   Private SPM Size:                256kB
   Private Read Ports:              0
   Private Write Ports:             0
   Private Read Bus Width:          64
   Private Write Bus Width:         64
       Memory Reads:                0
       Memory Writes:               0
   ========= Power Analysis ======================
   FU Leakage Power:                1.265749 mW 
   FU Dynamic Power:                1.166708 mW 
   FU Total Power:                  2.432457 mW 

   Registers Leakage Power:          0.011908 mW 
   Registers Dynamic Power:          0.045645 mW 
       Register Reads (Bits):        230408
       Register Writes (Bits):       231961
   Registers Total Power:            0.057553 mW

   SPM Leakage Power:               0.104100 mW
   SPM Read Dynamic Power:          4.599549 mW
   SPM Write Dynamic Power:         2.880682 mW
   SPM Total Power:                 7.584331 mW

   SPM Energy Per Read Access:      0.170493 nJ
   SPM Energy Per Write Access:     0.218190 nJ

   Cache Leakage Power:             0.000000 mW
   Cache Read Dynamic Power:        0.000000 mW
   Cache Write Dynamic Power:       0.000000 mW
   Cache Total Power:               0.000000 mW

   Accelerator Power:               2.490010 mW
   Accelerator Power (SPM):         10.074342 mW
   Accelerator Power (Cache):       2.490010 mW

   ========= Area Analysis =======================
   FU Area:                         170559.593750 um^2 (0.170560 mm^2)
   Register Area:                   967.909180 um^2 (0.000968 mm^2)
   SPM Area:                        2177.365505 um^2 (0.002177 mm^2)
   Cache Area:                      0.000000 um^2 (0.000000 mm^2)

   Accelerator Area:                171527.500000 um^2 (0.171527 mm^2)
   Accelerator Area (SPM):          173704.865505 um^2 (0.173705 mm^2)
   Accelerator Area (Cache):        171527.500000 um^2 (0.171527 mm^2)

   ========= SPM Resizing  =======================
   SPM Optimized Leakage Power:     0.003887 mW
   SPM Opt Area:                    172.850411 um^2

6275523125: global: Timer #0 started at tick 6275523125
6275961250: global: Timer #3 started at tick 6275961250
6275980625: global: Timer #4 started at tick 6275980625
6276145000: global: Timer #4 stopped at tick 6276145000. Duration: 164375
6276153125: global: Timer #5 started at tick 6276153125
6276168125: global: Timer #5 stopped at tick 6276168125. Duration: 15000
6276391875: global: Timer #3 stopped at tick 6276391875. Duration: 430625
6276441250: global: Timer #2 started at tick 6276441250
6276611250: global: Timer #2 stopped at tick 6276611250. Duration: 170000
6276915000: global: DAG ID = 2
6276927500: global: Node ID = 3
6276940625: global: Node deadline difference = -3716
6276953125: global: Predicted memory time / byte = 0.00019602 us/byte
6276965625: global: Predicted memory time = 12.8463 us
6276978125: global: Predicted memory time / byte = 0.00019602 us/byte
6276990625: global: Predicted memory time = 12.8463 us
6277003125: global: Predicted memory time / byte = 0 us/byte
6277015625: global: Predicted memory time = 0 us
6277028125: global: Predicted memory time / byte = 0 us/byte
6277040625: global: Predicted memory time = 0 us
6277053125: global: Predicted memory access size = 65536
6277065625: global: Predicted memory access size = 0
6277078125: global: Predicted memory access size = 65536
6277090625: global: Predicted memory access size = 0
6277192500: global: Timer #6 started at tick 6277192500
6277300625: global: Timer #7 started at tick 6277300625
6277963000: system.acctest.elem_matrix0_dma: SRC:0x000000008240e940, DST:0x0000000024000020, LEN:65536
6278098125: global: Timer #7 stopped at tick 6278098125. Duration: 797500
6278120625: global: Timer #6 stopped at tick 6278120625. Duration: 928125
6278203750: global: Timer #0 stopped at tick 6278203750. Duration: 2680625
6278218125: global: Number of accelerators running = 3
6280631625: system.acctest.grayscale0_dma: Transfer completed in 6.835 us
6280716250: global: Timer #0 started at tick 6280716250
6281056250: global: Timer #1 started at tick 6281056250
6281240000: global: Timer #1 stopped at tick 6281240000. Duration: 183750
6281445000: global: DAG ID = 1
6281457500: global: Node ID = 1
6281476875: global: Node deadline difference = -13933
6281489375: global: Predicted memory time / byte = 0.000202213 us/byte
6281501875: global: Predicted memory time = 9.93916 us
6281514375: global: Predicted memory time / byte = 0.000202213 us/byte
6281526875: global: Predicted memory time = 13.2522 us
6281539375: global: Predicted memory time / byte = 0.000158752 us/byte
6281551875: global: Predicted memory time = 7.803 us
6281564375: global: Predicted memory time / byte = 0.000104248 us/byte
6281576875: global: Predicted memory time = 6.832 us
6281589375: global: Predicted memory access size = 49152
6281601875: global: Predicted memory access size = 49152
6281614375: global: Predicted memory access size = 65536
6281626875: global: Predicted memory access size = 65536
6281767500: global: Timer #0 stopped at tick 6281767500. Duration: 1051250
6281781875: global: Number of accelerators running = 2
6292541000: system.acctest.elem_matrix0_dma: Transfer completed in 14.578 us
6292617500: global: Timer #0 started at tick 6292617500
6292946250: global: Timer #1 started at tick 6292946250
6293119375: global: Timer #1 stopped at tick 6293119375. Duration: 173125
6293348125: global: Timer #6 started at tick 6293348125
6293658125: global: Timer #7 started at tick 6293658125
6294662500: global: Timer #7 stopped at tick 6294662500. Duration: 1004375
6294815625: global: Timer #6 stopped at tick 6294815625. Duration: 1467500
6294916875: global: Timer #0 stopped at tick 6294916875. Duration: 2299375
6294931250: global: Number of accelerators running = 2
********************************************************************************
system.acctest.elem_matrix0.compute
   ========= Performance Analysis =============
   Setup Time:                      9.315496seconds
[...]
   Private Read Bus Width:          64
   Private Write Bus Width:         64
       Memory Reads:                0
       Memory Writes:               0
   ========= Power Analysis ======================
   FU Leakage Power:                0.519269 mW 
   FU Dynamic Power:                0.154621 mW 
   FU Total Power:                  0.673890 mW 

   Registers Leakage Power:          0.005281 mW 
   Registers Dynamic Power:          0.015326 mW 
       Register Reads (Bits):        132616
       Register Writes (Bits):       133658
   Registers Total Power:            0.020607 mW

   SPM Leakage Power:               0.104100 mW
   SPM Read Dynamic Power:          25.407676 mW
   SPM Write Dynamic Power:         20.063116 mW
   SPM Total Power:                 45.574892 mW

   SPM Energy Per Read Access:      0.170493 nJ
   SPM Energy Per Write Access:     0.218190 nJ

   Cache Leakage Power:             0.000000 mW
   Cache Read Dynamic Power:        0.000000 mW
   Cache Write Dynamic Power:       0.000000 mW
   Cache Total Power:               0.000000 mW

   Accelerator Power:               0.694497 mW
   Accelerator Power (SPM):         46.269389 mW
   Accelerator Power (Cache):       0.694497 mW

   ========= Area Analysis =======================
   FU Area:                         70212.562500 um^2 (0.070213 mm^2)
   Register Area:                   429.271088 um^2 (0.000429 mm^2)
   SPM Area:                        2177.365505 um^2 (0.002177 mm^2)
   Cache Area:                      0.000000 um^2 (0.000000 mm^2)

   Accelerator Area:                70641.835938 um^2 (0.070642 mm^2)
   Accelerator Area (SPM):          72819.201442 um^2 (0.072819 mm^2)
   Accelerator Area (Cache):        70641.835938 um^2 (0.070642 mm^2)

   ========= SPM Resizing  =======================
   SPM Optimized Leakage Power:     0.004248 mW
   SPM Opt Area:                    178.524902 um^2

15244109375: global: Timer #0 started at tick 15244109375
15244341250: global: Timer #3 started at tick 15244341250
15244360625: global: Timer #4 started at tick 15244360625
15244405625: global: Timer #4 stopped at tick 15244405625. Duration: 45000
15244416875: global: Timer #5 started at tick 15244416875
15244431875: global: Timer #5 stopped at tick 15244431875. Duration: 15000
15244636875: global: Timer #3 stopped at tick 15244636875. Duration: 295625
15244691250: global: Timer #2 started at tick 15244691250
15244746875: global: Timer #2 stopped at tick 15244746875. Duration: 55625
15244978125: global: DAG ID = 1
15244990625: global: Node ID = 13
15245003750: global: Node deadline difference = -7392
15245016250: global: Predicted memory time / byte = 0.000154332 us/byte
15245028750: global: Predicted memory time = 20.2286 us
15245041250: global: Predicted memory time / byte = 0.000154332 us/byte
15245053750: global: Predicted memory time = 10.1143 us
15245066250: global: Predicted memory time / byte = 0.00018158 us/byte
15245078750: global: Predicted memory time = 11.9 us
15245091250: global: Predicted memory time / byte = 0 us/byte
15245103750: global: Predicted memory time = 0 us
15245116250: global: Predicted memory access size = 131072
15245128750: global: Predicted memory access size = 65536
15245141250: global: Predicted memory access size = 65536
15245153750: global: Predicted memory access size = 0
15245228750: global: Timer #6 started at tick 15245228750
15245427500: global: Timer #7 started at tick 15245427500
15246075875: system.acctest.elem_matrix0_dma: SRC:0x000000008223a480, DST:0x0000000024010020, LEN:65536
15246200000: global: Timer #7 stopped at tick 15246200000. Duration: 772500
15246215000: global: Timer #6 stopped at tick 15246215000. Duration: 986250
15246308125: global: Timer #0 stopped at tick 15246308125. Duration: 2198750
15246322500: global: Number of accelerators running = 1
15258060875: system.acctest.elem_matrix0_dma: Transfer completed in 11.985 us
15258137500: global: Timer #0 started at tick 15258137500
15258453750: global: Timer #1 started at tick 15258453750
15258683125: global: Timer #1 stopped at tick 15258683125. Duration: 229375
15258912500: global: Timer #6 started at tick 15258912500
15258994375: global: Timer #7 started at tick 15258994375
15259990000: global: Timer #7 stopped at tick 15259990000. Duration: 995625
15260060625: global: Timer #6 stopped at tick 15260060625. Duration: 1148125
15260161875: global: Timer #0 stopped at tick 15260161875. Duration: 2024375
15260176250: global: Number of accelerators running = 1
********************************************************************************
system.acctest.elem_matrix0.compute
   ========= Performance Analysis =============
   Setup Time:                      6.218782seconds
   Simulation Time:                 117.357951seconds
   System Clock:                    1.000000GHz
   Transistor Latency:              1ns
   Runtime:                         10932 cycles
   Runtime:                         10.932000 us
   Stalls:                          0 cycles
   Executed Nodes:                  10931 cycles

********************************************************************************
   ========= Performance Analysis =================
   Setup Time:                      6218782272.000000ns
   Simulation Time:                 117357950519.000000ns
   System Clock:                    1.000000GHz
   Transistor Latency:              0ns
   Runtime:                         10932 cycles
   Runtime:                         0.000001 seconds
   Stalls:                          0 cycles
       Load Only:                   0 cycles
       Store Only:                  0 cycles
       Compute Only:                0 cycles
       Compute & Store:             0 cycles
       Load & Store:                0 cycles
       Load & Compute:              0 cycles
       Load & Compute & Store:      0 cycles
   Executed Nodes:                  10931 cycles
       Load Only:                   0 cycles
       Store Only:                  5 cycles
       Compute Only:                1 cycles
       Compute & Store:             21 cycles
       Load & Store:                0 cycles
       Load & Compute:              7 cycles
       Load & Compute & Store:      10897 cycles

   ========= Runtime FU's ========= (Max | Avg) ===
   Counter FU's:                      32 | 0.046838
   Integer Add/Sub FU's:               0 | 0.000000
   Integer Mul/Div FU's:               0 | 0.000000
   Integer Shifter FU's:               0 | 0.000000
   Integer Bitwise FU's:               1 | 0.000091
   Floating Point Float Add/Sub:      34 | 0.044252
   Floating Point Double Add/Sub:      0 | 0.000000
   Floating Point Float Mul/Div:       0 | 0.000000
   Floating Point Double Mul/Div:      0 | 0.000000
   0 Cycle Compare FU's:             102 | 0.046974
   GEP Instruction FU's:              96 | 0.046835
   Type Conversion FU's:               7 | 0.006782

   ========= Static FU's ==========================
   Counter FU's:                    0
   Integer Add/Sub FU's:            0
   Integer Mul/Div FU's:            0
   Integer Shifter FU's:            0
   Integer Bitwise FU's:            0
   Floating Point Float Add/Sub:    0
   Floating Point Double Add/Sub:   0
   Floating Point Float Mul/Div:    0
   Floating Point Double Mul/Div:   0
   0 Cycle Compare FU's:            0
   GEP Instruction FU's:            0
   Type Conversion FU's:            0
   Other:                           0

   ========= Pipeline Register Usage =============
   Total Number of Registers:       5641
   Max Register Usage Per Cycle:    138
   Avg Register Usage Per Cycle:    12.130992
   Avg Register Size (Bytes):       5.980606

   ========= Memory Configuration =================
   Cache Bus Ports:                 0
   Shared Cache Size:               0kB
   Local Bus Ports:                 0
   Private SPM Size:                256kB
   Private Read Ports:              0
   Private Write Ports:             0
   Private Read Bus Width:          64
   Private Write Bus Width:         64
       Memory Reads:                0
       Memory Writes:               0
   ========= Power Analysis ======================
   FU Leakage Power:                0.519269 mW 
   FU Dynamic Power:                0.154621 mW 
   FU Total Power:                  0.673890 mW 

   Registers Leakage Power:          0.005281 mW 
   Registers Dynamic Power:          0.015326 mW 
       Register Reads (Bits):        132616
       Register Writes (Bits):       133658
   Registers Total Power:            0.020607 mW

   SPM Leakage Power:               0.104100 mW
   SPM Read Dynamic Power:          25.507843 mW
   SPM Write Dynamic Power:         20.114600 mW
   SPM Total Power:                 45.726543 mW

   SPM Energy Per Read Access:      0.170493 nJ
   SPM Energy Per Write Access:     0.218190 nJ

   Cache Leakage Power:             0.000000 mW
   Cache Read Dynamic Power:        0.000000 mW
   Cache Write Dynamic Power:       0.000000 mW
   Cache Total Power:               0.000000 mW

   Accelerator Power:               0.694497 mW
   Accelerator Power (SPM):         46.421039 mW
   Accelerator Power (Cache):       0.694497 mW

   ========= Area Analysis =======================
   FU Area:                         70212.562500 um^2 (0.070213 mm^2)
   Register Area:                   429.271088 um^2 (0.000429 mm^2)
   SPM Area:                        2177.365505 um^2 (0.002177 mm^2)
   Cache Area:                      0.000000 um^2 (0.000000 mm^2)

   Accelerator Area:                70641.835938 um^2 (0.070642 mm^2)
   Accelerator Area (SPM):          72819.201442 um^2 (0.072819 mm^2)
   Accelerator Area (Cache):        70641.835938 um^2 (0.070642 mm^2)

   ========= SPM Resizing  =======================
   SPM Optimized Leakage Power:     0.004248 mW
   SPM Opt Area:                    178.524902 um^2

15270887500: global: Timer #0 started at tick 15270887500
15271238125: global: Timer #3 started at tick 15271238125
15271316875: global: Timer #4 started at tick 15271316875
15271345625: global: Timer #4 stopped at tick 15271345625. Duration: 28750
15271356875: global: Timer #5 started at tick 15271356875
15271371875: global: Timer #5 stopped at tick 15271371875. Duration: 15000
15271570000: global: Timer #3 stopped at tick 15271570000. Duration: 331875
15271619375: global: Timer #2 started at tick 15271619375
15271673125: global: Timer #2 stopped at tick 15271673125. Duration: 53750
15271904375: global: DAG ID = 1
15271916875: global: Node ID = 16
15271930000: global: Node deadline difference = -7422
15271942500: global: Predicted memory time / byte = 0.000156127 us/byte
15271955000: global: Predicted memory time = 20.4639 us
15271967500: global: Predicted memory time / byte = 0.000156127 us/byte
15271980000: global: Predicted memory time = 10.2319 us
15271992500: global: Predicted memory time / byte = 0.000182755 us/byte
15272005000: global: Predicted memory time = 11.977 us
15272017500: global: Predicted memory time / byte = 0 us/byte
15272030000: global: Predicted memory time = 0 us
15272042500: global: Predicted memory access size = 131072
15272055000: global: Predicted memory access size = 65536
15272067500: global: Predicted memory access size = 65536
15272080000: global: Predicted memory access size = 0
15272255625: global: Timer #6 started at tick 15272255625
15272388125: global: Timer #7 started at tick 15272388125
15273063750: system.acctest.harris_non_max0_dma: SRC:0x0000000024030020, DST:0x0000000026000020, LEN:65536
15273248750: global: Timer #7 stopped at tick 15273248750. Duration: 860625
15273271250: global: Timer #6 stopped at tick 15273271250. Duration: 1015625
15273351875: global: Timer #0 stopped at tick 15273351875. Duration: 2464375
15273366250: global: Number of accelerators running = 1
15283324750: system.acctest.harris_non_max0_dma: Transfer completed in 10.261 us
15283420625: global: Timer #0 started at tick 15283420625
15283760000: global: Timer #1 started at tick 15283760000
15283989375: global: Timer #1 stopped at tick 15283989375. Duration: 229375
15284213125: global: Timer #6 started at tick 15284213125
15284318125: global: Timer #7 started at tick 15284318125
15284832500: global: Timer #7 stopped at tick 15284832500. Duration: 514375
15284893125: global: Timer #6 stopped at tick 15284893125. Duration: 680000
15284989375: global: Timer #0 stopped at tick 15284989375. Duration: 1568750
15285003750: global: Number of accelerators running = 1
********************************************************************************
system.acctest.harris_non_max0.compute
   ========= Performance Analysis =============
   Setup Time:                      0.004766seconds
   Simulation Time:                 2.491970seconds
   System Clock:                    1.000000GHz
   Transistor Latency:              1ns
   Runtime:                         105010 cycles
   Runtime:                         105.010000 us
   Stalls:                          0 cycles
   Executed Nodes:                  105009 cycles

********************************************************************************
   ========= Performance Analysis =================
   Setup Time:                      4765930.000000ns
   Simulation Time:                 2491970152.000000ns
   System Clock:                    1.000000GHz
   Transistor Latency:              0ns
   Runtime:                         105010 cycles
   Runtime:                         0.000011 seconds
   Stalls:                          0 cycles
       Load Only:                   0 cycles
       Store Only:                  0 cycles
       Compute Only:                0 cycles
       Compute & Store:             0 cycles
       Load & Store:                0 cycles
       Load & Compute:              0 cycles
       Load & Compute & Store:      0 cycles
   Executed Nodes:                  105009 cycles
       Load Only:                   0 cycles
       Store Only:                  0 cycles
       Compute Only:                72241 cycles
       Compute & Store:             16384 cycles
       Load & Store:                0 cycles
       Load & Compute:              16384 cycles
       Load & Compute & Store:      0 cycles

   ========= Runtime FU's ========= (Max | Avg) ===
   Counter FU's:                       2 | 0.167889
   Integer Add/Sub FU's:               2 | 0.261670
   Integer Mul/Div FU's:               0 | 0.000000
   Integer Shifter FU's:               3 | 0.018017
   Integer Bitwise FU's:               1 | 0.472964
   Floating Point Float Add/Sub:       0 | 0.000000
   Floating Point Double Add/Sub:      0 | 0.000000
   Floating Point Float Mul/Div:       0 | 0.000000
   Floating Point Double Mul/Div:      0 | 0.000000
   0 Cycle Compare FU's:              26 | 0.199329
   GEP Instruction FU's:               3 | 0.208571
   Type Conversion FU's:              14 | 0.062158

   ========= Static FU's ==========================
   Counter FU's:                    0
   Integer Add/Sub FU's:            0
   Integer Mul/Div FU's:            0
   Integer Shifter FU's:            0
   Integer Bitwise FU's:            0
   Floating Point Float Add/Sub:    0
   Floating Point Double Add/Sub:   0
   Floating Point Float Mul/Div:    0
   Floating Point Double Mul/Div:   0
   0 Cycle Compare FU's:            0
   GEP Instruction FU's:            0
   Type Conversion FU's:            0
   Other:                           0

   ========= Pipeline Register Usage =============
   Total Number of Registers:       146
   Max Register Usage Per Cycle:    20
   Avg Register Usage Per Cycle:    5.029864
   Avg Register Size (Bytes):       5.546762

   ========= Memory Configuration =================
   Cache Bus Ports:                 0
   Shared Cache Size:               0kB
   Local Bus Ports:                 0
   Private SPM Size:                192kB
   Private Read Ports:              0
   Private Write Ports:             0
   Private Read Bus Width:          64
   Private Write Bus Width:         64
       Memory Reads:                0
       Memory Writes:               0
   ========= Power Analysis ======================
   FU Leakage Power:                0.010458 mW 
   FU Dynamic Power:                2.202634 mW 
   FU Total Power:                  2.213092 mW 

   Registers Leakage Power:          0.002041 mW 
   Registers Dynamic Power:          0.236415 mW 
       Register Reads (Bits):        528188
       Register Writes (Bits):       578368
   Registers Total Power:            0.238456 mW

   SPM Leakage Power:               0.068382 mW
   SPM Read Dynamic Power:          0.522209 mW
   SPM Write Dynamic Power:         0.561696 mW
   SPM Total Power:                 1.152287 mW

   SPM Energy Per Read Access:      0.108255 nJ
   SPM Energy Per Write Access:     0.137710 nJ

   Cache Leakage Power:             0.000000 mW
   Cache Read Dynamic Power:        0.000000 mW
   Cache Write Dynamic Power:       0.000000 mW
   Cache Total Power:               0.000000 mW

   Accelerator Power:               2.451548 mW
   Accelerator Power (SPM):         3.603836 mW
   Accelerator Power (Cache):       2.451548 mW

   ========= Area Analysis =======================
   FU Area:                         799.308228 um^2 (0.000799 mm^2)
   Register Area:                   165.887924 um^2 (0.000166 mm^2)
   SPM Area:                        1011.904012 um^2 (0.001012 mm^2)
   Cache Area:                      0.000000 um^2 (0.000000 mm^2)

   Accelerator Area:                965.196167 um^2 (0.000965 mm^2)
   Accelerator Area (SPM):          1977.100179 um^2 (0.001977 mm^2)
   Accelerator Area (Cache):        965.196167 um^2 (0.000965 mm^2)

   ========= SPM Resizing  =======================
   SPM Optimized Leakage Power:     0.001770 mW
   SPM Opt Area:                    77.453784 um^2

15389797500: global: Timer #0 started at tick 15389797500
15390038125: global: Timer #7 started at tick 15390038125
15390682375: system.acctest.harris_non_max0_dma: SRC:0x0000000026020020, DST:0x000000008225a600, LEN:16384
15390835625: global: Timer #7 stopped at tick 15390835625. Duration: 797500
15391076875: global: Timer #0 stopped at tick 15391076875. Duration: 1279375
15391091250: global: Number of accelerators running = 1
15392314375: system.acctest.harris_non_max0_dma: Transfer completed in 1.632 us
15392390000: global: Timer #0 started at tick 15392390000
15392714375: global: Timer #1 started at tick 15392714375
15392945625: global: Timer #1 stopped at tick 15392945625. Duration: 231250
15393145000: global: DAG ID = 1
15393157500: global: Node ID = 17
15393181250: global: DAG execution time = 9242
15393194375: global: DAG deadline difference = -7425
15393211875: global: Node deadline difference = -7425
15393224375: global: Predicted memory time / byte = 0.000157972 us/byte
15393236875: global: Predicted memory time = 10.3528 us
15393249375: global: Predicted memory time / byte = 0.000157972 us/byte
15393261875: global: Predicted memory time = 2.58821 us
15393274375: global: Predicted memory time / byte = 0.000156021 us/byte
15393286875: global: Predicted memory time = 10.225 us
15393299375: global: Predicted memory time / byte = 9.86328e-05 us/byte
15393311875: global: Predicted memory time = 1.616 us
15393324375: global: Predicted memory access size = 65536
15393336875: global: Predicted memory access size = 65536
15393349375: global: Predicted memory access size = 16384
15393361875: global: Predicted memory access size = 16384
15393468750: global: Timer #0 stopped at tick 15393468750. Duration: 1078750
15393483125: global: Number of accelerators running = 0
15393563125: global: Number of forwards = 143
15393724375: global: Number of colocations = 126
15393743125: global: Number of DAG deadlines met = 3
15393761875: global: Number of node deadlines met = 174
15393795625: global: Total predicted compute time = 11155 us
Exiting @ tick 15393940000 because m5_exit instruction encountered
