gem5 Simulator System.  http://gem5.org
gem5 is copyrighted software; use the --copyright option for details.

gem5 compiled Jun 12 2023 18:40:01
gem5 started Jul 13 2023 13:25:06
gem5 executing on node4x10a.cs.rochester.edu, pid 56231
command line: /u/sgupta45/gem5-SALAM/build/ARM/gem5_bus.opt --debug-flags=HWACC,CommInterface,LLVMInterface,StreamDma,NoncoherentDma,TickTimer,SchedulerStats --outdir=BM_ARM_OUT/comb_pred_3/canny_1_deblur_0_gru_0_harris_1_lstm_1_ELF_MEM_PRED_AVERAGE_15_dm_false configs/SALAM/scheduler.py --mem-size=4GB --mem-type=LPDDR5_6400_1x16_BG_BL32 --kernel=/u/sgupta45/gem5-SALAM/benchmarks/scheduler/sw/bin_comb_pred_3/canny_1_deblur_0_gru_0_harris_1_lstm_1_ELF_MEM_PRED_AVERAGE_15_dm_false.elf --vans-config-path=/u/sgupta45/VANS/config --disk-image=/u/sgupta45/gem5-SALAM/baremetal/common/fake.iso --machine-type=VExpress_GEM5_V1 --dtb-file=none --bare-metal --cpu-type=ex5_LITTLE --cpu-clock=1.6GHz --accpath=/u/sgupta45/gem5-SALAM/benchmarks --caches --cacheline_size=64 --l1d_size=32kB --l1d_assoc=4 --l1i_size=32kB --l1i_assoc=2

Global frequency set at 1000000000000 ticks per second
Cycle Counts Loaded!
Cycle Counts Loaded!
Cycle Counts Loaded!
Cycle Counts Loaded!
Cycle Counts Loaded!
Cycle Counts Loaded!
Cycle Counts Loaded!
Cycle Counts Loaded!
Cycle Counts Loaded!
Cycle Counts Loaded!
Cycle Counts Loaded!
**** REAL SIMULATION ****
3602735625: global: Timer #4 started at tick 3602735625
3603038750: global: Timer #4 stopped at tick 3603038750. Duration: 303125
3603057500: global: Timer #5 started at tick 3603057500
3603165000: global: Timer #5 stopped at tick 3603165000. Duration: 107500
3604258750: global: Timer #2 started at tick 3604258750
3604782500: global: Timer #2 stopped at tick 3604782500. Duration: 523750
3608704375: global: Timer #4 started at tick 3608704375
3608735625: global: Timer #4 stopped at tick 3608735625. Duration: 31250
3608751250: global: Timer #5 started at tick 3608751250
3608766250: global: Timer #5 stopped at tick 3608766250. Duration: 15000
3609010625: global: Timer #2 started at tick 3609010625
3609133750: global: Timer #2 stopped at tick 3609133750. Duration: 123125
3614614375: global: Timer #4 started at tick 3614614375
3614724375: global: Timer #4 stopped at tick 3614724375. Duration: 110000
3614740000: global: Timer #5 started at tick 3614740000
3614755000: global: Timer #5 stopped at tick 3614755000. Duration: 15000
3615134375: global: Timer #2 started at tick 3615134375
3615353125: global: Timer #2 stopped at tick 3615353125. Duration: 218750
3665565875: system.acctest.elem_matrix0_dma: SRC:0x00000000823a4800, DST:0x0000000024000020, LEN:65536
3670748000: system.acctest.isp0_dma: SRC:0x0000000082018d40, DST:0x0000000027000020, LEN:16900
3671170625: global: Number of accelerators running = 2
3674820000: system.acctest.isp0_dma: Transfer completed in 4.072 us
3675420625: global: Timer #0 started at tick 3675420625
3676884375: global: Timer #1 started at tick 3676884375
3677703750: global: Timer #1 stopped at tick 3677703750. Duration: 819375
3678641875: system.acctest.elem_matrix0_dma: Transfer completed in 13.076 us
3679679375: global: Timer #0 stopped at tick 3679679375. Duration: 4258750
3679741250: global: Number of accelerators running = 2
3680076250: global: Timer #0 started at tick 3680076250
3680737500: global: Timer #1 started at tick 3680737500
3681198125: global: Timer #1 stopped at tick 3681198125. Duration: 460625
3695512375: system.acctest.elem_matrix0_dma: SRC:0x0000000082264640, DST:0x0000000024010020, LEN:65536
3695837500: global: Timer #0 stopped at tick 3695837500. Duration: 15761250
3695853750: global: Number of accelerators running = 2
3707754375: system.acctest.elem_matrix0_dma: Transfer completed in 12.242 us
3707874375: global: Timer #0 started at tick 3707874375
3708456875: global: Timer #1 started at tick 3708456875
3708920000: global: Timer #1 stopped at tick 3708920000. Duration: 463125
3710513125: global: Timer #0 stopped at tick 3710513125. Duration: 2638750
3710529375: global: Number of accelerators running = 2
********************************************************************************
system.acctest.isp0.compute
   ========= Performance Analysis =============
   Setup Time:                      0.253774seconds
   Simulation Time:                 781.399seconds
   System Clock:                    1GHz
   Transistor Latency:              1ns
   Runtime:                         34882 cycles
   Runtime:                         34.882 us
   Stalls:                          1 cycles
   Executed Nodes:                  34880 cycles

********************************************************************************
   ========= Performance Analysis =================
   Setup Time:                      2.53774e+08ns
   Simulation Time:                 7.81399e+11ns
   System Clock:                    1GHz
   Transistor Latency:              0ns
   Runtime:                         34882 cycles
   Runtime:                         3.4882e-06 seconds
   Stalls:                          1 cycles
       Load Only:                   0 cycles
       Store Only:                  1 cycles
       Compute Only:                0 cycles
       Compute & Store:             0 cycles
       Load & Store:                0 cycles
       Load & Compute:              0 cycles
       Load & Compute & Store:      0 cycles
   Executed Nodes:                  34880 cycles
       Load Only:                   0 cycles
       Store Only:                  1 cycles
       Compute Only:                3453 cycles
       Compute & Store:             19014 cycles
       Load & Store:                0 cycles
       Load & Compute:              2467 cycles
       Load & Compute & Store:      9945 cycles

   ========= Runtime FU's ========= (Max | Avg) ===
   Counter FU's:                      10 | 0.118075
   Integer Add/Sub FU's:              76 | 0.082082
   Integer Mul/Div FU's:              11 | 0.043888
   Integer Shifter FU's:              42 | 0.055974
   Integer Bitwise FU's:               4 | 0.059443
   Floating Point Float Add/Sub:      53 | 0.116839
   Floating Point Double Add/Sub:      0 | 0.000000
   Floating Point Float Mul/Div:      76 | 0.625626
   Floating Point Double Mul/Div:      0 | 0.000000
   0 Cycle Compare FU's:              85 | 0.664984
   GEP Instruction FU's:              33 | 0.117424
   Type Conversion FU's:             110 | 0.379700

   ========= Static FU's ==========================
   Counter FU's:                    0
   Integer Add/Sub FU's:            0
   Integer Mul/Div FU's:            0
   Integer Shifter FU's:            0
   Integer Bitwise FU's:            0
   Floating Point Float Add/Sub:    0
   Floating Point Double Add/Sub:   0
   Floating Point Float Mul/Div:    0
   Floating Point Double Mul/Div:   0
   0 Cycle Compare FU's:            0
   GEP Instruction FU's:            0
   Type Conversion FU's:            0
   Other:                           0

   ========= Pipeline Register Usage =============
   Total Number of Registers:       1620
   Max Register Usage Per Cycle:    151
   Avg Register Usage Per Cycle:    58.744711
   Avg Register Size (Bytes):       5.073357

   ========= Memory Configuration =================
   Cache Bus Ports:                 0
   Shared Cache Size:               0kB
   Local Bus Ports:                 0
   Private SPM Size:                112kB
   Private Read Ports:              0
   Private Write Ports:             0
   Private Read Bus Width:          64
   Private Write Bus Width:         64
       Memory Reads:                0
       Memory Writes:               0
   ========= Power Analysis ======================
   FU Leakage Power:                1.637787 mW 
   FU Dynamic Power:                9.655087 mW 
   FU Total Power:                  11.292874 mW 

   Registers Leakage Power:          0.021654 mW 
   Registers Dynamic Power:          3.085961 mW 
       Register Reads (Bits):        2049133
       Register Writes (Bits):       2049168
   Registers Total Power:            3.107615 mW

   SPM Leakage Power:               0.061081 mW
   SPM Read Dynamic Power:          11.103730 mW
   SPM Write Dynamic Power:         7.385230 mW
   SPM Total Power:                 18.550041 mW

   Cache Leakage Power:             0.000000 mW
   Cache Read Dynamic Power:        0.000000 mW
   Cache Write Dynamic Power:       0.000000 mW
   Cache Total Power:               0.000000 mW

   Accelerator Power:               14.400490 mW
   Accelerator Power (SPM):         32.950531 mW
   Accelerator Power (Cache):       14.400490 mW

   ========= Area Analysis =======================
   FU Area:                         176023.796875 um^2 (0.176024 mm^2)
   Register Area:                   1760.064941 um^2 (0.001760 mm^2)
   SPM Area:                        2165.394891 um^2 (0.002165 mm^2)
   Cache Area:                      0.000000 um^2 (0.000000 mm^2)

   Accelerator Area:                177783.859375 um^2 (0.177784 mm^2)
   Accelerator Area (SPM):          179949.254266 um^2 (0.179949 mm^2)
   Accelerator Area (Cache):        177783.859375 um^2 (0.177784 mm^2)

   ========= SPM Resizing  =======================
   SPM Optimized Leakage Power:     0.005964 mW
   SPM Opt Area:                    422.108128 um^2

3714055625: global: Timer #0 started at tick 3714055625
3714666875: global: Timer #3 started at tick 3714666875
3714799375: global: Timer #4 started at tick 3714799375
3714975000: global: Timer #4 stopped at tick 3714975000. Duration: 175625
3715035625: global: Timer #5 started at tick 3715035625
3715184375: global: Timer #5 stopped at tick 3715184375. Duration: 148750
3715669375: global: Timer #3 stopped at tick 3715669375. Duration: 1002500
3715968750: global: Timer #2 started at tick 3715968750
3716602500: global: Timer #2 stopped at tick 3716602500. Duration: 633750
3717225000: global: DAG ID = 0
3717244375: global: Node ID = 0
3717262500: global: Node deadline difference = -13497
3717324375: global: Predicted memory time / byte = 7.27596e-05 us/byte
3717342500: global: Predicted memory time = 1.22964 us
3717360625: global: Predicted memory time / byte = 7.27596e-05 us/byte
3717378750: global: Predicted memory time = 3.57628 us
3717396875: global: Predicted memory time / byte = 0.000284024 us/byte
3717458125: global: Predicted memory time = 4.8 us
3717476250: global: Predicted memory time / byte = 0 us/byte
3717494375: global: Predicted memory time = 0 us
3717512500: global: Predicted memory access size = 16900
3717530625: global: Predicted memory access size = 16900
3717593125: global: Predicted memory access size = 49152
3717611875: global: Predicted memory access size = 0
3718793750: system.acctest.grayscale0_dma: SRC:0x0000000027004224, DST:0x0000000025000020, LEN:49152
********************************************************************************
system.acctest.elem_matrix0.compute
   ========= Performance Analysis =============
   Setup Time:                      5.284027seconds
   Simulation Time:                 323.670469seconds
   System Clock:                    1.000000GHz
   Transistor Latency:              1ns
   Runtime:                         10932 cycles
   Runtime:                         10.932000 us
   Stalls:                          0 cycles
   Executed Nodes:                  10931 cycles

********************************************************************************
   ========= Performance Analysis =================
   Setup Time:                      5284026526.000000ns
   Simulation Time:                 323670468733.000000ns
   System Clock:                    1.000000GHz
   Transistor Latency:              0ns
   Runtime:                         10932 cycles
   Runtime:                         0.000001 seconds
   Stalls:                          0 cycles
       Load Only:                   0 cycles
       Store Only:                  0 cycles
       Compute Only:                0 cycles
       Compute & Store:             0 cycles
       Load & Store:                0 cycles
       Load & Compute:              0 cycles
       Load & Compute & Store:      0 cycles
   Executed Nodes:                  10931 cycles
       Load Only:                   0 cycles
       Store Only:                  5 cycles
       Compute Only:                1 cycles
       Compute & Store:             21 cycles
       Load & Store:                0 cycles
       Load & Compute:              7 cycles
       Load & Compute & Store:      10897 cycles

   ========= Runtime FU's ========= (Max | Avg) ===
   Counter FU's:                      32 | 0.046838
   Integer Add/Sub FU's:               0 | 0.000000
   Integer Mul/Div FU's:               0 | 0.000000
   Integer Shifter FU's:               0 | 0.000000
   Integer Bitwise FU's:               1 | 0.000091
   Floating Point Float Add/Sub:      34 | 0.044252
   Floating Point Double Add/Sub:      0 | 0.000000
   Floating Point Float Mul/Div:       0 | 0.000000
   Floating Point Double Mul/Div:      0 | 0.000000
   0 Cycle Compare FU's:             102 | 0.046974
   GEP Instruction FU's:              96 | 0.046835
   Type Conversion FU's:               7 | 0.006782

   ========= Static FU's ==========================
   Counter FU's:                    0
   Integer Add/Sub FU's:            0
   Integer Mul/Div FU's:            0
   Integer Shifter FU's:            0
   Integer Bitwise FU's:            0
   Floating Point Float Add/Sub:    0
   Floating Point Double Add/Sub:   0
   Floating Point Float Mul/Div:    0
   Floating Point Double Mul/Div:   0
   0 Cycle Compare FU's:            0
   GEP Instruction FU's:            0
   Type Conversion FU's:            0
   Other:                           0

   ========= Pipeline Register Usage =============
   Total Number of Registers:       5641
   Max Register Usage Per Cycle:    138
   Avg Register Usage Per Cycle:    12.130992
   Avg Register Size (Bytes):       5.980606

   ========= Memory Configuration =================
   Cache Bus Ports:                 0
   Shared Cache Size:               0kB
   Local Bus Ports:                 0
   Private SPM Size:                256kB
   Private Read Ports:              0
   Private Write Ports:             0
   Private Read Bus Width:          64
   Private Write Bus Width:         64
       Memory Reads:                0
       Memory Writes:               0
   ========= Power Analysis ======================
   FU Leakage Power:                0.519269 mW 
   FU Dynamic Power:                0.154621 mW 
   FU Total Power:                  0.673890 mW 

   Registers Leakage Power:          0.005281 mW 
   Registers Dynamic Power:          0.015326 mW 
       Register Reads (Bits):        132616
       Register Writes (Bits):       133658
   Registers Total Power:            0.020607 mW

   SPM Leakage Power:               0.104100 mW
   SPM Read Dynamic Power:          1.997266 mW
   SPM Write Dynamic Power:         0.953321 mW
   SPM Total Power:                 3.054688 mW

   Cache Leakage Power:             0.000000 mW
   Cache Read Dynamic Power:        0.000000 mW
   Cache Write Dynamic Power:       0.000000 mW
   Cache Total Power:               0.000000 mW

   Accelerator Power:               0.694497 mW
   Accelerator Power (SPM):         3.749184 mW
   Accelerator Power (Cache):       0.694497 mW

   ========= Area Analysis =======================
   FU Area:                         70212.562500 um^2 (0.070213 mm^2)
   Register Area:                   429.271088 um^2 (0.000429 mm^2)
   SPM Area:                        2177.365505 um^2 (0.002177 mm^2)
   Cache Area:                      0.000000 um^2 (0.000000 mm^2)

   Accelerator Area:                70641.835938 um^2 (0.070642 mm^2)
   Accelerator Area (SPM):          72819.201442 um^2 (0.072819 mm^2)
   Accelerator Area (Cache):        70641.835938 um^2 (0.070642 mm^2)

   ========= SPM Resizing  =======================
   SPM Optimized Leakage Power:     0.004248 mW
   SPM Opt Area:                    178.524902 um^2

3723813000: system.acctest.isp0_dma: SRC:0x00000000820ce840, DST:0x0000000027000020, LEN:16900
3724005000: global: Timer #0 stopped at tick 3724005000. Duration: 9949375
3724021250: global: Number of accelerators running = 3
3724176875: global: Timer #0 started at tick 3724176875
3724581875: global: Timer #3 started at tick 3724581875
3724700625: global: Timer #4 started at tick 3724700625
3724750625: global: Timer #4 stopped at tick 3724750625. Duration: 50000
3724768125: global: Timer #5 started at tick 3724768125
3724783125: global: Timer #5 stopped at tick 3724783125. Duration: 15000
3725033750: global: Timer #3 stopped at tick 3725033750. Duration: 451875
3725250625: global: Timer #3 started at tick 3725250625
3725296250: global: Timer #4 started at tick 3725296250
3725344375: global: Timer #4 stopped at tick 3725344375. Duration: 48125
3725357500: global: Timer #5 started at tick 3725357500
3725372500: global: Timer #5 stopped at tick 3725372500. Duration: 15000
3725788125: global: Timer #3 stopped at tick 3725788125. Duration: 537500
3726051250: global: Timer #3 started at tick 3726051250
3726085000: global: Timer #4 started at tick 3726085000
3726130000: global: Timer #4 stopped at tick 3726130000. Duration: 45000
3726143125: global: Timer #5 started at tick 3726143125
3726158125: global: Timer #5 stopped at tick 3726158125. Duration: 15000
3726426875: global: Timer #3 stopped at tick 3726426875. Duration: 375625
3726621250: global: Timer #3 started at tick 3726621250
3726655000: global: Timer #4 started at tick 3726655000
3726700000: global: Timer #4 stopped at tick 3726700000. Duration: 45000
3726713125: global: Timer #5 started at tick 3726713125
3726728125: global: Timer #5 stopped at tick 3726728125. Duration: 15000
3726953125: global: Timer #3 stopped at tick 3726953125. Duration: 331875
3727003750: global: Timer #2 started at tick 3727003750
3727053750: global: Timer #2 stopped at tick 3727053750. Duration: 50000
3727088750: global: Timer #2 started at tick 3727088750
3727123000: system.acctest.isp0_dma: Transfer completed in 3.31 us
3727313750: global: Timer #2 stopped at tick 3727313750. Duration: 225000
3727422500: global: Timer #4 started at tick 3727422500
3727604375: global: Timer #4 stopped at tick 3727604375. Duration: 181875
3727840625: global: Timer #2 started at tick 3727840625
3727915625: global: Timer #2 stopped at tick 3727915625. Duration: 75000
3727930625: global: Timer #4 started at tick 3727930625
3727987500: global: Timer #4 stopped at tick 3727987500. Duration: 56875
3728170000: global: Timer #2 started at tick 3728170000
3728230625: global: Timer #2 stopped at tick 3728230625. Duration: 60625
3728245625: global: Timer #4 started at tick 3728245625
3728283125: global: Timer #4 stopped at tick 3728283125. Duration: 37500
3728352750: system.acctest.grayscale0_dma: Transfer completed in 9.559 us
3741951625: system.acctest.elem_matrix0_dma: SRC:0x0000000024020020, DST:0x0000000082274640, LEN:65536
3742408750: global: Timer #0 stopped at tick 3742408750. Duration: 18231875
3742425000: global: Number of accelerators running = 3
3742619375: global: Timer #0 started at tick 3742619375
3743133125: global: Timer #1 started at tick 3743133125
3743466250: global: Timer #1 stopped at tick 3743466250. Duration: 333125
3744701250: global: Timer #0 stopped at tick 3744701250. Duration: 2081875
3744717500: global: Number of accelerators running = 3
3745026250: global: Timer #0 started at tick 3745026250
3745565625: global: Timer #1 started at tick 3745565625
3746051250: global: Timer #1 stopped at tick 3746051250. Duration: 485625
3747457500: global: Timer #0 stopped at tick 3747457500. Duration: 2431250
3747560000: global: Number of accelerators running = 3
3748330625: system.acctest.elem_matrix0_dma: Transfer completed in 6.379 us
3748471875: global: Timer #0 started at tick 3748471875
3748905000: global: Timer #1 started at tick 3748905000
3749431250: global: Timer #1 stopped at tick 3749431250. Duration: 526250
3749934375: global: DAG ID = 2
3749998125: global: Node ID = 0
3750072500: global: Node deadline difference = -3588
3750090625: global: Predicted memory time / byte = 7.27596e-05 us/byte
3750108750: global: Predicted memory time = 9.53674 us
3750128750: global: Predicted memory time / byte = 7.27596e-05 us/byte
3750146875: global: Predicted memory time = 4.76837 us
3750165000: global: Predicted memory time / byte = 0.00020562 us/byte
3750183125: global: Predicted memory time = 26.951 us
3750201250: global: Predicted memory time / byte = 9.95483e-05 us/byte
3750219375: global: Predicted memory time = 6.524 us
3750239375: global: Predicted memory access size = 131072
3750257500: global: Predicted memory access size = 131072
3750275625: global: Predicted memory access size = 65536
3750293750: global: Predicted memory access size = 65536
********************************************************************************
system.acctest.grayscale0.compute
   ========= Performance Analysis =============
   Setup Time:                      0.014418seconds
   Simulation Time:                 480.513988seconds
   System Clock:                    1.000000GHz
   Transistor Latency:              1ns
   Runtime:                         10263 cycles
   Runtime:                         10.263000 us
   Stalls:                          1 cycles
   Executed Nodes:                  10261 cycles

********************************************************************************
   ========= Performance Analysis =================
   Setup Time:                      14418085.000000ns
   Simulation Time:                 480513987576.000000ns
   System Clock:                    1.000000GHz
   Transistor Latency:              0ns
   Runtime:                         10263 cycles
   Runtime:                         0.000001 seconds
   Stalls:                          1 cycles
       Load Only:                   0 cycles
       Store Only:                  1 cycles
       Compute Only:                0 cycles
       Compute & Store:             0 cycles
       Load & Store:                0 cycles
       Load & Compute:              0 cycles
       Load & Compute & Store:      0 cycles
   Executed Nodes:                  10261 cycles
       Load Only:                   0 cycles
       Store Only:                  1 cycles
       Compute Only:                88 cycles
       Compute & Store:             344 cycles
       Load & Store:                0 cycles
       Load & Compute:              1981 cycles
       Load & Compute & Store:      7847 cycles

   ========= Runtime FU's ========= (Max | Avg) ===
   Counter FU's:                      24 | 0.199556
   Integer Add/Sub FU's:               0 | 0.000000
   Integer Mul/Div FU's:               8 | 0.199552
   Integer Shifter FU's:               0 | 0.000000
   Integer Bitwise FU's:               1 | 0.000097
   Floating Point Float Add/Sub:      49 | 0.114264
   Floating Point Double Add/Sub:      0 | 0.000000
   Floating Point Float Mul/Div:      42 | 0.114129
   Floating Point Double Mul/Div:      0 | 0.000000
   0 Cycle Compare FU's:               9 | 0.066626
   GEP Instruction FU's:              36 | 0.177452
   Type Conversion FU's:              76 | 0.401969

   ========= Static FU's ==========================
   Counter FU's:                    0
   Integer Add/Sub FU's:            0
   Integer Mul/Div FU's:            0
   Integer Shifter FU's:            0
   Integer Bitwise FU's:            0
   Floating Point Float Add/Sub:    0
   Floating Point Double Add/Sub:   0
   Floating Point Float Mul/Div:    0
   Floating Point Double Mul/Div:   0
   0 Cycle Compare FU's:            0
   GEP Instruction FU's:            0
   Type Conversion FU's:            0
   Other:                           0

   ========= Pipeline Register Usage =============
   Total Number of Registers:       235
   Max Register Usage Per Cycle:    90
   Avg Register Usage Per Cycle:    33.924291
   Avg Register Size (Bytes):       5.841147

   ========= Memory Configuration =================
   Cache Bus Ports:                 0
   Shared Cache Size:               0kB
   Local Bus Ports:                 0
   Private SPM Size:                176kB
   Private Read Ports:              0
   Private Write Ports:             0
   Private Read Bus Width:          64
   Private Write Bus Width:         64
       Memory Reads:                0
       Memory Writes:               0
   ========= Power Analysis ======================
   FU Leakage Power:                1.178269 mW 
   FU Dynamic Power:                0.617392 mW 
   FU Total Power:                  1.795662 mW 

   Registers Leakage Power:          0.014185 mW 
   Registers Dynamic Power:          0.101057 mW 
       Register Reads (Bits):        348165
       Register Writes (Bits):       348168
   Registers Total Power:            0.115242 mW

   SPM Leakage Power:               0.089881 mW
   SPM Read Dynamic Power:          6.997296 mW
   SPM Write Dynamic Power:         2.062375 mW
   SPM Total Power:                 9.149552 mW

   Cache Leakage Power:             0.000000 mW
   Cache Read Dynamic Power:        0.000000 mW
   Cache Write Dynamic Power:       0.000000 mW
   Cache Total Power:               0.000000 mW

   Accelerator Power:               1.910904 mW
   Accelerator Power (SPM):         11.060456 mW
   Accelerator Power (Cache):       1.910904 mW

   ========= Area Analysis =======================
   FU Area:                         143348.187500 um^2 (0.143348 mm^2)
   Register Area:                   1152.968140 um^2 (0.001153 mm^2)
   SPM Area:                        3573.642862 um^2 (0.003574 mm^2)
   Cache Area:                      0.000000 um^2 (0.000000 mm^2)

   Accelerator Area:                144501.156250 um^2 (0.144501 mm^2)
   Accelerator Area (SPM):          148074.799112 um^2 (0.148075 mm^2)
   Accelerator Area (Cache):        144501.156250 um^2 (0.144501 mm^2)

   ========= SPM Resizing  =======================
   SPM Optimized Leakage Power:     0.003633 mW
   SPM Opt Area:                    364.024374 um^2

3764019500: system.acctest.elem_matrix0_dma: SRC:0x00000000821e44c0, DST:0x0000000024000020, LEN:65536
3764231250: global: Timer #0 stopped at tick 3764231250. Duration: 15759375
3764247500: global: Number of accelerators running = 3
3764532500: global: Timer #0 started at tick 3764532500
3764892500: global: Timer #3 started at tick 3764892500
3764983750: global: Timer #4 started at tick 3764983750
3765094375: global: Timer #4 stopped at tick 3765094375. Duration: 110625
3765098125: global: Timer #5 started at tick 3765098125
3765103125: global: Timer #5 stopped at tick 3765103125. Duration: 5000
3765513750: global: Timer #3 stopped at tick 3765513750. Duration: 621250
3765570000: global: Timer #2 started at tick 3765570000
3765633125: global: Timer #2 stopped at tick 3765633125. Duration: 63125
3765893750: global: DAG ID = 0
3765907500: global: Node ID = 1
3765920625: global: Node deadline difference = -13486
3765933125: global: Predicted memory time / byte = 0.000214574 us/byte
3765945625: global: Predicted memory time = 10.5468 us
3765958125: global: Predicted memory time / byte = 0.000214574 us/byte
3765970625: global: Predicted memory time = 14.0623 us
3765983125: global: Predicted memory time / byte = 0.00053363 us/byte
3765995625: global: Predicted memory time = 26.229 us
3766008125: global: Predicted memory time / byte = 0 us/byte
3766020625: global: Predicted memory time = 0 us
3766033125: global: Predicted memory access size = 49152
3766045625: global: Predicted memory access size = 49152
3766058125: global: Predicted memory access size = 65536
3766070625: global: Predicted memory access size = 0
3767403000: system.acctest.convolution0_dma: SRC:0x000000002500c020, DST:0x0000000022000020, LEN:65536
3767837500: global: Timer #0 stopped at tick 3767837500. Duration: 3305000
3767853750: global: Number of accelerators running = 3
3776155500: system.acctest.elem_matrix0_dma: Transfer completed in 12.136 us
3776378750: global: Timer #0 started at tick 3776378750
3776873125: global: Timer #1 started at tick 3776873125
3777371250: global: Timer #1 stopped at tick 3777371250. Duration: 498125
********************************************************************************
system.acctest.isp0.compute
   ========= Performance Analysis =============
   Setup Time:                      0.623671seconds
   Simulation Time:                 1129.868655seconds
   System Clock:                    1.000000GHz
   Transistor Latency:              1ns
   Runtime:                         34882 cycles
   Runtime:                         34.882000 us
   Stalls:                          1 cycles
   Executed Nodes:                  34880 cycles

********************************************************************************
   ========= Performance Analysis =================
   Setup Time:                      623670873.000000ns
   Simulation Time:                 1129868654523.000000ns
   System Clock:                    1.000000GHz
   Transistor Latency:              0ns
   Runtime:                         34882 cycles
   Runtime:                         0.000003 seconds
   Stalls:                          1 cycles
       Load Only:                   0 cycles
       Store Only:                  1 cycles
       Compute Only:                0 cycles
       Compute & Store:             0 cycles
       Load & Store:                0 cycles
       Load & Compute:              0 cycles
       Load & Compute & Store:      0 cycles
   Executed Nodes:                  34880 cycles
       Load Only:                   0 cycles
       Store Only:                  1 cycles
       Compute Only:                3453 cycles
       Compute & Store:             19014 cycles
       Load & Store:                0 cycles
       Load & Compute:              2467 cycles
       Load & Compute & Store:      9945 cycles

   ========= Runtime FU's ========= (Max | Avg) ===
   Counter FU's:                      10 | 0.118075
   Integer Add/Sub FU's:              76 | 0.082082
   Integer Mul/Div FU's:              11 | 0.043888
   Integer Shifter FU's:              42 | 0.055974
   Integer Bitwise FU's:               4 | 0.059443
   Floating Point Float Add/Sub:      53 | 0.116839
   Floating Point Double Add/Sub:      0 | 0.000000
   Floating Point Float Mul/Div:      76 | 0.625626
   Floating Point Double Mul/Div:      0 | 0.000000
   0 Cycle Compare FU's:              85 | 0.664984
   GEP Instruction FU's:              33 | 0.117424
   Type Conversion FU's:             110 | 0.379700

   ========= Static FU's ==========================
   Counter FU's:                    0
   Integer Add/Sub FU's:            0
   Integer Mul/Div FU's:            0
   Integer Shifter FU's:            0
   Integer Bitwise FU's:            0
   Floating Point Float Add/Sub:    0
   Floating Point Double Add/Sub:   0
   Floating Point Float Mul/Div:    0
   Floating Point Double Mul/Div:   0
   0 Cycle Compare FU's:            0
   GEP Instruction FU's:            0
   Type Conversion FU's:            0
   Other:                           0

   ========= Pipeline Register Usage =============
   Total Number of Registers:       1620
   Max Register Usage Per Cycle:    151
   Avg Register Usage Per Cycle:    58.744711
   Avg Register Size (Bytes):       5.073357

   ========= Memory Configuration =================
   Cache Bus Ports:                 0
   Shared Cache Size:               0kB
   Local Bus Ports:                 0
   Private SPM Size:                112kB
   Private Read Ports:              0
   Private Write Ports:             0
   Private Read Bus Width:          64
   Private Write Bus Width:         64
       Memory Reads:                0
       Memory Writes:               0
   ========= Power Analysis ======================
   FU Leakage Power:                1.637787 mW 
   FU Dynamic Power:                9.655087 mW 
   FU Total Power:                  11.292874 mW 

   Registers Leakage Power:          0.021654 mW 
   Registers Dynamic Power:          3.085961 mW 
       Register Reads (Bits):        2049133
       Register Writes (Bits):       2049168
   Registers Total Power:            3.107615 mW

   SPM Leakage Power:               0.061081 mW
   SPM Read Dynamic Power:          15.102444 mW
   SPM Write Dynamic Power:         10.618341 mW
   SPM Total Power:                 25.781867 mW

   Cache Leakage Power:             0.000000 mW
   Cache Read Dynamic Power:        0.000000 mW
   Cache Write Dynamic Power:       0.000000 mW
   Cache Total Power:               0.000000 mW

   Accelerator Power:               14.400490 mW
   Accelerator Power (SPM):         40.182357 mW
   Accelerator Power (Cache):       14.400490 mW

   ========= Area Analysis =======================
   FU Area:                         176023.796875 um^2 (0.176024 mm^2)
   Register Area:                   1760.064941 um^2 (0.001760 mm^2)
   SPM Area:                        2165.394891 um^2 (0.002165 mm^2)
   Cache Area:                      0.000000 um^2 (0.000000 mm^2)

   Accelerator Area:                177783.859375 um^2 (0.177784 mm^2)
   Accelerator Area (SPM):          179949.254266 um^2 (0.179949 mm^2)
   Accelerator Area (Cache):        177783.859375 um^2 (0.177784 mm^2)

   ========= SPM Resizing  =======================
   SPM Optimized Leakage Power:     0.005964 mW
   SPM Opt Area:                    422.108128 um^2

3779343750: global: Timer #0 stopped at tick 3779343750. Duration: 2965000
3779360000: global: Number of accelerators running = 3
3779616875: global: Timer #0 started at tick 3779616875
3779981250: global: Timer #3 started at tick 3779981250
3780000625: global: Timer #4 started at tick 3780000625
3780037500: global: Timer #4 stopped at tick 3780037500. Duration: 36875
3780050625: global: Timer #5 started at tick 3780050625
3780065625: global: Timer #5 stopped at tick 3780065625. Duration: 15000
3780334375: global: Timer #3 stopped at tick 3780334375. Duration: 353125
3780398125: global: Timer #2 started at tick 3780398125
3780452500: global: Timer #2 stopped at tick 3780452500. Duration: 54375
3780713750: global: DAG ID = 1
3780727500: global: Node ID = 0
3780740625: global: Node deadline difference = -13896
3780753125: global: Predicted memory time / byte = 7.27596e-05 us/byte
3780765625: global: Predicted memory time = 1.22964 us
3780778125: global: Predicted memory time / byte = 7.27596e-05 us/byte
3780790625: global: Predicted memory time = 3.57628 us
3780803125: global: Predicted memory time / byte = 0.00111296 us/byte
3780815625: global: Predicted memory time = 18.809 us
3780828125: global: Predicted memory time / byte = 0 us/byte
3780840625: global: Predicted memory time = 0 us
3780853125: global: Predicted memory access size = 16900
3780865625: global: Predicted memory access size = 16900
3780878125: global: Predicted memory access size = 49152
3780890625: global: Predicted memory access size = 0
3781380000: system.acctest.convolution0_dma: Transfer completed in 13.977 us
3781683750: system.acctest.grayscale0_dma: SRC:0x0000000027010224, DST:0x0000000025000020, LEN:49152
3781901875: global: Timer #0 stopped at tick 3781901875. Duration: 2285000
3781918125: global: Number of accelerators running = 3
3782047500: global: Timer #0 started at tick 3782047500
3782542500: global: Timer #1 started at tick 3782542500
3782895625: global: Timer #1 stopped at tick 3782895625. Duration: 353125
3784275000: system.acctest.convolution0_dma: SRC:0x0000000082039280, DST:0x0000000022030020, LEN:100
3784379000: system.acctest.convolution0_dma: Transfer completed in 0.104 us
3784585000: global: Timer #0 stopped at tick 3784585000. Duration: 2537500
3784601250: global: Number of accelerators running = 3
3784948750: global: Timer #0 started at tick 3784948750
3786805625: global: Timer #0 stopped at tick 3786805625. Duration: 1856875
3786821875: global: Number of accelerators running = 3
3789421750: system.acctest.grayscale0_dma: Transfer completed in 7.738 us
3789515000: global: Timer #0 started at tick 3789515000
3789839375: global: Timer #1 started at tick 3789839375
********************************************************************************
system.acctest.elem_matrix0.compute
   ========= Performance Analysis =============
   Setup Time:                      10.962441seconds
   Simulation Time:                 253.060914seconds
   System Clock:                    1.000000GHz
   Transistor Latency:              1ns
   Runtime:                         10932 cycles
   Runtime:                         10.932000 us
   Stalls:                          1 cycles
   Executed Nodes:                  10930 cycles

********************************************************************************
   ========= Performance Analysis =================
   Setup Time:                      10962441026.000000ns
   Simulation Time:                 253060914056.000000ns
   System Clock:                    1.000000GHz
   Transistor Latency:              0ns
   Runtime:                         10932 cycles
   Runtime:                         0.000001 seconds
   Stalls:                          1 cycles
       Load Only:                   0 cycles
       Store Only:                  1 cycles
       Compute Only:                0 cycles
       Compute & Store:             0 cycles
       Load & Store:                0 cycles
       Load & Compute:              0 cycles
       Load & Compute & Store:      0 cycles
   Executed Nodes:                  10930 cycles
       Load Only:                   0 cycles
       Store Only:                  4 cycles
       Compute Only:                1 cycles
       Compute & Store:             21 cycles
       Load & Store:                0 cycles
       Load & Compute:              6 cycles
       Load & Compute & Store:      10898 cycles

   ========= Runtime FU's ========= (Max | Avg) ===
   Counter FU's:                      32 | 0.046838
   Integer Add/Sub FU's:               0 | 0.000000
   Integer Mul/Div FU's:               0 | 0.000000
   Integer Shifter FU's:               0 | 0.000000
   Integer Bitwise FU's:               1 | 0.000091
   Floating Point Float Add/Sub:       0 | 0.000000
   Floating Point Double Add/Sub:      0 | 0.000000
   Floating Point Float Mul/Div:      34 | 0.044252
   Floating Point Double Mul/Div:      0 | 0.000000
   0 Cycle Compare FU's:             102 | 0.046945
   GEP Instruction FU's:              96 | 0.046835
   Type Conversion FU's:               7 | 0.006782

   ========= Static FU's ==========================
   Counter FU's:                    0
   Integer Add/Sub FU's:            0
   Integer Mul/Div FU's:            0
   Integer Shifter FU's:            0
   Integer Bitwise FU's:            0
   Floating Point Float Add/Sub:    0
   Floating Point Double Add/Sub:   0
   Floating Point Float Mul/Div:    0
   Floating Point Double Mul/Div:   0
   0 Cycle Compare FU's:            0
   GEP Instruction FU's:            0
   Type Conversion FU's:            0
   Other:                           0

   ========= Pipeline Register Usage =============
   Total Number of Registers:       5641
   Max Register Usage Per Cycle:    137
   Avg Register Usage Per Cycle:    12.130992
   Avg Register Size (Bytes):       5.980606

   ========= Memory Configuration =================
   Cache Bus Ports:                 0
   Shared Cache Size:               0kB
   Local Bus Ports:                 0
   Private SPM Size:                256kB
   Private Read Ports:              0
   Private Write Ports:             0
   Private Read Bus Width:          64
   Private Write Bus Width:         64
       Memory Reads:                0
       Memory Writes:               0
   ========= Power Analysis ======================
   FU Leakage Power:                0.045377 mW 
   FU Dynamic Power:                0.142576 mW 
   FU Total Power:                  0.187953 mW 

   Registers Leakage Power:          0.005281 mW 
   Registers Dynamic Power:          0.015326 mW 
       Register Reads (Bits):        132616
       Register Writes (Bits):       133658
   Registers Total Power:            0.020607 mW

   SPM Leakage Power:               0.104100 mW
   SPM Read Dynamic Power:          2.785289 mW
   SPM Write Dynamic Power:         2.044305 mW
   SPM Total Power:                 4.933694 mW

   Cache Leakage Power:             0.000000 mW
   Cache Read Dynamic Power:        0.000000 mW
   Cache Write Dynamic Power:       0.000000 mW
   Cache Total Power:               0.000000 mW

   Accelerator Power:               0.208559 mW
   Accelerator Power (SPM):         5.142254 mW
   Accelerator Power (Cache):       0.208559 mW

   ========= Area Analysis =======================
   FU Area:                         5472.068359 um^2 (0.005472 mm^2)
   Register Area:                   429.271088 um^2 (0.000429 mm^2)
   SPM Area:                        2177.365505 um^2 (0.002177 mm^2)
   Cache Area:                      0.000000 um^2 (0.000000 mm^2)

   Accelerator Area:                5901.339355 um^2 (0.005901 mm^2)
   Accelerator Area (SPM):          8078.704860 um^2 (0.008079 mm^2)
   Accelerator Area (Cache):        5901.339355 um^2 (0.005901 mm^2)

   ========= SPM Resizing  =======================
   SPM Optimized Leakage Power:     0.004248 mW
   SPM Opt Area:                    178.524902 um^2

3790289375: global: Timer #1 stopped at tick 3790289375. Duration: 450000
3791512500: global: Timer #0 stopped at tick 3791512500. Duration: 1997500
3791615000: global: Number of accelerators running = 3
3791958750: global: Timer #0 started at tick 3791958750
3792263125: global: Timer #3 started at tick 3792263125
3792282500: global: Timer #4 started at tick 3792282500
3792321250: global: Timer #4 stopped at tick 3792321250. Duration: 38750
3792334375: global: Timer #5 started at tick 3792334375
3792349375: global: Timer #5 stopped at tick 3792349375. Duration: 15000
3792699375: global: Timer #3 stopped at tick 3792699375. Duration: 436250
3792758125: global: Timer #2 started at tick 3792758125
3792956875: global: Timer #2 stopped at tick 3792956875. Duration: 198750
3793208750: global: DAG ID = 2
3793222500: global: Node ID = 1
3793235625: global: Node deadline difference = -3601
3793248125: global: Predicted memory time / byte = 0.000214574 us/byte
3793260625: global: Predicted memory time = 28.1247 us
3793273125: global: Predicted memory time / byte = 0.000214574 us/byte
3793285625: global: Predicted memory time = 14.0623 us
3793298125: global: Predicted memory time / byte = 0.000188675 us/byte
3793310625: global: Predicted memory time = 12.365 us
3793323125: global: Predicted memory time / byte = 0 us/byte
3793335625: global: Predicted memory time = 0 us
3793348125: global: Predicted memory access size = 131072
3793360625: global: Predicted memory access size = 65536
3793373125: global: Predicted memory access size = 65536
3793385625: global: Predicted memory access size = 0
********************************************************************************
system.acctest.grayscale0.compute
   ========= Performance Analysis =============
   Setup Time:                      0.011572seconds
   Simulation Time:                 222.550014seconds
   System Clock:                    1.000000GHz
   Transistor Latency:              1ns
   Runtime:                         10263 cycles
   Runtime:                         10.263000 us
   Stalls:                          1 cycles
   Executed Nodes:                  10261 cycles

********************************************************************************
   ========= Performance Analysis =================
   Setup Time:                      11571654.000000ns
   Simulation Time:                 222550014127.000000ns
   System Clock:                    1.000000GHz
   Transistor Latency:              0ns
   Runtime:                         10263 cycles
   Runtime:                         0.000001 seconds
   Stalls:                          1 cycles
       Load Only:                   0 cycles
       Store Only:                  1 cycles
       Compute Only:                0 cycles
       Compute & Store:             0 cycles
       Load & Store:                0 cycles
       Load & Compute:              0 cycles
       Load & Compute & Store:      0 cycles
   Executed Nodes:                  10261 cycles
       Load Only:                   0 cycles
       Store Only:                  1 cycles
       Compute Only:                88 cycles
       Compute & Store:             344 cycles
       Load & Store:                0 cycles
       Load & Compute:              1981 cycles
       Load & Compute & Store:      7847 cycles

   ========= Runtime FU's ========= (Max | Avg) ===
   Counter FU's:                      24 | 0.199556
   Integer Add/Sub FU's:               0 | 0.000000
   Integer Mul/Div FU's:               8 | 0.199552
   Integer Shifter FU's:               0 | 0.000000
   Integer Bitwise FU's:               1 | 0.000097
   Floating Point Float Add/Sub:      49 | 0.114264
   Floating Point Double Add/Sub:      0 | 0.000000
   Floating Point Float Mul/Div:      42 | 0.114129
   Floating Point Double Mul/Div:      0 | 0.000000
   0 Cycle Compare FU's:               9 | 0.066626
   GEP Instruction FU's:              36 | 0.177452
   Type Conversion FU's:              76 | 0.401969

   ========= Static FU's ==========================
   Counter FU's:                    0
   Integer Add/Sub FU's:            0
   Integer Mul/Div FU's:            0
   Integer Shifter FU's:            0
   Integer Bitwise FU's:            0
   Floating Point Float Add/Sub:    0
   Floating Point Double Add/Sub:   0
   Floating Point Float Mul/Div:    0
   Floating Point Double Mul/Div:   0
   0 Cycle Compare FU's:            0
   GEP Instruction FU's:            0
   Type Conversion FU's:            0
   Other:                           0

   ========= Pipeline Register Usage =============
   Total Number of Registers:       235
   Max Register Usage Per Cycle:    90
   Avg Register Usage Per Cycle:    33.924291
   Avg Register Size (Bytes):       5.841147

   ========= Memory Configuration =================
   Cache Bus Ports:                 0
   Shared Cache Size:               0kB
   Local Bus Ports:                 0
   Private SPM Size:                176kB
   Private Read Ports:              0
   Private Write Ports:             0
   Private Read Bus Width:          64
   Private Write Bus Width:         64
       Memory Reads:                0
       Memory Writes:               0
   ========= Power Analysis ======================
   FU Leakage Power:                1.178269 mW 
   FU Dynamic Power:                0.617392 mW 
   FU Total Power:                  1.795662 mW 

   Registers Leakage Power:          0.014185 mW 
   Registers Dynamic Power:          0.101057 mW 
       Register Reads (Bits):        348165
       Register Writes (Bits):       348168
   Registers Total Power:            0.115242 mW

   SPM Leakage Power:               0.089881 mW
   SPM Read Dynamic Power:          10.232207 mW
   SPM Write Dynamic Power:         5.980668 mW
   SPM Total Power:                 16.302756 mW

   Cache Leakage Power:             0.000000 mW
   Cache Read Dynamic Power:        0.000000 mW
   Cache Write Dynamic Power:       0.000000 mW
   Cache Total Power:               0.000000 mW

   Accelerator Power:               1.910904 mW
   Accelerator Power (SPM):         18.213660 mW
   Accelerator Power (Cache):       1.910904 mW

   ========= Area Analysis =======================
   FU Area:                         143348.187500 um^2 (0.143348 mm^2)
   Register Area:                   1152.968140 um^2 (0.001153 mm^2)
   SPM Area:                        3573.642862 um^2 (0.003574 mm^2)
   Cache Area:                      0.000000 um^2 (0.000000 mm^2)

   Accelerator Area:                144501.156250 um^2 (0.144501 mm^2)
   Accelerator Area (SPM):          148074.799112 um^2 (0.148075 mm^2)
   Accelerator Area (Cache):        144501.156250 um^2 (0.144501 mm^2)

   ========= SPM Resizing  =======================
   SPM Optimized Leakage Power:     0.003633 mW
   SPM Opt Area:                    364.024374 um^2

3806859500: system.acctest.elem_matrix0_dma: SRC:0x00000000821f44c0, DST:0x0000000024000020, LEN:65536
3807075625: global: Timer #0 stopped at tick 3807075625. Duration: 15116875
3807091875: global: Number of accelerators running = 3
3807308750: global: Timer #0 started at tick 3807308750
3807651250: global: Timer #3 started at tick 3807651250
3807671250: global: Timer #4 started at tick 3807671250
3807784375: global: Timer #4 stopped at tick 3807784375. Duration: 113125
3807788125: global: Timer #5 started at tick 3807788125
3807793125: global: Timer #5 stopped at tick 3807793125. Duration: 5000
3808058125: global: Timer #3 stopped at tick 3808058125. Duration: 406875
3808606875: global: Timer #3 started at tick 3808606875
3808648125: global: Timer #4 started at tick 3808648125
3808686875: global: Timer #4 stopped at tick 3808686875. Duration: 38750
3808700000: global: Timer #5 started at tick 3808700000
3808715000: global: Timer #5 stopped at tick 3808715000. Duration: 15000
3808941250: global: Timer #3 stopped at tick 3808941250. Duration: 334375
3808991875: global: Timer #2 started at tick 3808991875
3809070625: global: Timer #2 stopped at tick 3809070625. Duration: 78750
3809092500: global: Timer #4 started at tick 3809092500
3809149375: global: Timer #4 stopped at tick 3809149375. Duration: 56875
3809343750: global: Timer #2 started at tick 3809343750
3809429375: global: Timer #2 stopped at tick 3809429375. Duration: 85625
3809446875: global: Timer #4 started at tick 3809446875
3809484375: global: Timer #4 stopped at tick 3809484375. Duration: 37500
3819034500: system.acctest.elem_matrix0_dma: Transfer completed in 12.175 us
3823067375: system.acctest.grayscale0_dma: SRC:0x000000002500c020, DST:0x00000000820dec00, LEN:65536
3823460000: global: Timer #0 stopped at tick 3823460000. Duration: 16151250
3823476250: global: Number of accelerators running = 3
3823593750: global: Timer #0 started at tick 3823593750
3824053125: global: Timer #1 started at tick 3824053125
3824494375: global: Timer #1 stopped at tick 3824494375. Duration: 441250
3826368125: global: Timer #0 stopped at tick 3826368125. Duration: 2774375
3826384375: global: Number of accelerators running = 3
3829476375: system.acctest.grayscale0_dma: Transfer completed in 6.409 us
3829563125: global: Timer #0 started at tick 3829563125
3829921875: global: Timer #1 started at tick 3829921875
3830121875: global: Timer #1 stopped at tick 3830121875. Duration: 200000
3830388125: global: DAG ID = 1
3830401875: global: Node ID = 1
3830420000: global: Node deadline difference = -13883
3830432500: global: Predicted memory time / byte = 0.00027725 us/byte
3830445000: global: Predicted memory time = 13.6274 us
3830457500: global: Predicted memory time / byte = 0.00027725 us/byte
3830470000: global: Predicted memory time = 18.1699 us
3830482500: global: Predicted memory time / byte = 0.000157349 us/byte
3830495000: global: Predicted memory time = 7.734 us
3830507500: global: Predicted memory time / byte = 9.82361e-05 us/byte
3830520000: global: Predicted memory time = 6.438 us
3830532500: global: Predicted memory access size = 49152
3830545000: global: Predicted memory access size = 49152
3830557500: global: Predicted memory access size = 65536
3830570000: global: Predicted memory access size = 65536
3830705625: global: Timer #0 stopped at tick 3830705625. Duration: 1142500
3830721875: global: Number of accelerators running = 2
********************************************************************************
system.acctest.elem_matrix0.compute
   ========= Performance Analysis =============
   Setup Time:                      7.853644seconds
   Simulation Time:                 193.924871seconds
   System Clock:                    1.000000GHz
   Transistor Latency:              1ns
   Runtime:                         10932 cycles
   Runtime:                         10.932000 us
   Stalls:                          0 cycles
   Executed Nodes:                  10931 cycles

********************************************************************************
   ========= Performance Analysis =================
   Setup Time:                      7853644181.000000ns
   Simulation Time:                 193924871123.000000ns
   System Clock:                    1.000000GHz
   Transistor Latency:              0ns
   Runtime:                         10932 cycles
   Runtime:                         0.000001 seconds
   Stalls:                          0 cycles
       Load Only:                   0 cycles
       Store Only:                  0 cycles
       Compute Only:                0 cycles
       Compute & Store:             0 cycles
       Load & Store:                0 cycles
       Load & Compute:              0 cycles
       Load & Compute & Store:      0 cycles
   Executed Nodes:                  10931 cycles
       Load Only:                   0 cycles
       Store Only:                  5 cycles
       Compute Only:                1 cycles
       Compute & Store:             21 cycles
       Load & Store:                0 cycles
       Load & Compute:              7 cycles
       Load & Compute & Store:      10897 cycles

   ========= Runtime FU's ========= (Max | Avg) ===
   Counter FU's:                      32 | 0.046838
   Integer Add/Sub FU's:               0 | 0.000000
   Integer Mul/Div FU's:               0 | 0.000000
   Integer Shifter FU's:               0 | 0.000000
   Integer Bitwise FU's:               1 | 0.000091
   Floating Point Float Add/Sub:      34 | 0.044252
   Floating Point Double Add/Sub:      0 | 0.000000
   Floating Point Float Mul/Div:       0 | 0.000000
   Floating Point Double Mul/Div:      0 | 0.000000
   0 Cycle Compare FU's:             102 | 0.046974
   GEP Instruction FU's:              96 | 0.046835
   Type Conversion FU's:               7 | 0.006782

   ========= Static FU's ==========================
   Counter FU's:                    0
   Integer Add/Sub FU's:            0
   Integer Mul/Div FU's:            0
   Integer Shifter FU's:            0
   Integer Bitwise FU's:            0
   Floating Point Float Add/Sub:    0
   Floating Point Double Add/Sub:   0
   Floating Point Float Mul/Div:    0
   Floating Point Double Mul/Div:   0
   0 Cycle Compare FU's:            0
   GEP Instruction FU's:            0
   Type Conversion FU's:            0
   Other:                           0

   ========= Pipeline Register Usage =============
   Total Number of Registers:       5641
   Max Register Usage Per Cycle:    138
   Avg Register Usage Per Cycle:    12.130992
   Avg Register Size (Bytes):       5.980606

   ========= Memory Configuration =================
   Cache Bus Ports:                 0
   Shared Cache Size:               0kB
   Local Bus Ports:                 0
   Private SPM Size:                256kB
   Private Read Ports:              0
   Private Write Ports:             0
   Private Read Bus Width:          64
   Private Write Bus Width:         64
       Memory Reads:                0
       Memory Writes:               0
   ========= Power Analysis ======================
   FU Leakage Power:                0.519269 mW 
   FU Dynamic Power:                0.154621 mW 
   FU Total Power:                  0.673890 mW 

   Registers Leakage Power:          0.005281 mW 
   Registers Dynamic Power:          0.015326 mW 
       Register Reads (Bits):        132616
       Register Writes (Bits):       133658
   Registers Total Power:            0.020607 mW

   SPM Leakage Power:               0.104100 mW
   SPM Read Dynamic Power:          3.776796 mW
   SPM Write Dynamic Power:         2.457440 mW
   SPM Total Power:                 6.338336 mW

   Cache Leakage Power:             0.000000 mW
   Cache Read Dynamic Power:        0.000000 mW
   Cache Write Dynamic Power:       0.000000 mW
   Cache Total Power:               0.000000 mW

   Accelerator Power:               0.694497 mW
   Accelerator Power (SPM):         7.032833 mW
   Accelerator Power (Cache):       0.694497 mW

   ========= Area Analysis =======================
   FU Area:                         70212.562500 um^2 (0.070213 mm^2)
   Register Area:                   429.271088 um^2 (0.000429 mm^2)
   SPM Area:                        2177.365505 um^2 (0.002177 mm^2)
   Cache Area:                      0.000000 um^2 (0.000000 mm^2)

   Accelerator Area:                70641.835938 um^2 (0.070642 mm^2)
   Accelerator Area (SPM):          72819.201442 um^2 (0.072819 mm^2)
   Accelerator Area (Cache):        70641.835938 um^2 (0.070642 mm^2)

   ========= SPM Resizing  =======================
   SPM Optimized Leakage Power:     0.004248 mW
   SPM Opt Area:                    178.524902 um^2

3837030625: global: Timer #0 started at tick 3837030625
3837331250: global: Timer #3 started at tick 3837331250
3837350625: global: Timer #4 started at tick 3837350625
3837446875: global: Timer #4 stopped at tick 3837446875. Duration: 96250
3837460000: global: Timer #5 started at tick 3837460000
3837475000: global: Timer #5 stopped at tick 3837475000. Duration: 15000
3837683750: global: Timer #3 stopped at tick 3837683750. Duration: 352500
3837727500: global: Timer #2 started at tick 3837727500
3837890625: global: Timer #2 stopped at tick 3837890625. Duration: 163125
3838141875: global: DAG ID = 2
3838155625: global: Node ID = 2
3838168750: global: Node deadline difference = -3613
3838181250: global: Predicted memory time / byte = 0.000256675 us/byte
3838193750: global: Predicted memory time = 33.6429 us
3838206250: global: Predicted memory time / byte = 0.000256675 us/byte
3838218750: global: Predicted memory time = 16.8214 us
3838231250: global: Predicted memory time / byte = 0.000255432 us/byte
3838243750: global: Predicted memory time = 16.74 us
3838256250: global: Predicted memory time / byte = 0 us/byte
3838268750: global: Predicted memory time = 0 us
3838281250: global: Predicted memory access size = 131072
3838293750: global: Predicted memory access size = 65536
3838306250: global: Predicted memory access size = 65536
3838318750: global: Predicted memory access size = 0
3839798750: global: Timer #0 stopped at tick 3839798750. Duration: 2768125
3839815000: global: Number of accelerators running = 2
********************************************************************************
system.acctest.elem_matrix0.compute
   ========= Performance Analysis =============
   Setup Time:                      10.197878seconds
   Simulation Time:                 154.755739seconds
   System Clock:                    1.000000GHz
   Transistor Latency:              1ns
   Runtime:                         8316 cycles
   Runtime:                         8.316000 us
   Stalls:                          82 cycles
   Executed Nodes:                  8233 cycles

********************************************************************************
   ========= Performance Analysis =================
   Setup Time:                      10197877754.000000ns
   Simulation Time:                 154755739467.000000ns
   System Clock:                    1.000000GHz
   Transistor Latency:              0ns
   Runtime:                         8316 cycles
   Runtime:                         0.000001 seconds
   Stalls:                          82 cycles
       Load Only:                   0 cycles
       Store Only:                  77 cycles
       Compute Only:                0 cycles
       Compute & Store:             5 cycles
       Load & Store:                0 cycles
       Load & Compute:              0 cycles
       Load & Compute & Store:      0 cycles
   Executed Nodes:                  8233 cycles
       Load Only:                   0 cycles
       Store Only:                  11 cycles
       Compute Only:                1827 cycles
       Compute & Store:             3453 cycles
       Load & Store:                0 cycles
       Load & Compute:              774 cycles
       Load & Compute & Store:      2168 cycles

   ========= Runtime FU's ========= (Max | Avg) ===
   Counter FU's:                      32 | 0.061572
   Integer Add/Sub FU's:               0 | 0.000000
   Integer Mul/Div FU's:               0 | 0.000000
   Integer Shifter FU's:               0 | 0.000000
   Integer Bitwise FU's:               1 | 0.000120
   Floating Point Float Add/Sub:      80 | 0.302014
   Floating Point Double Add/Sub:      0 | 0.000000
   Floating Point Float Mul/Div:      35 | 0.056511
   Floating Point Double Mul/Div:      0 | 0.000000
   0 Cycle Compare FU's:              15 | 0.024828
   GEP Instruction FU's:              64 | 0.061568
   Type Conversion FU's:              66 | 0.120964

   ========= Static FU's ==========================
   Counter FU's:                    0
   Integer Add/Sub FU's:            0
   Integer Mul/Div FU's:            0
   Integer Shifter FU's:            0
   Integer Bitwise FU's:            0
   Floating Point Float Add/Sub:    0
   Floating Point Double Add/Sub:   0
   Floating Point Float Mul/Div:    0
   Floating Point Double Mul/Div:   0
   0 Cycle Compare FU's:            0
   GEP Instruction FU's:            0
   Type Conversion FU's:            0
   Other:                           0

   ========= Pipeline Register Usage =============
   Total Number of Registers:       5641
   Max Register Usage Per Cycle:    126
   Avg Register Usage Per Cycle:    27.706590
   Avg Register Size (Bytes):       5.993295

   ========= Memory Configuration =================
   Cache Bus Ports:                 0
   Shared Cache Size:               0kB
   Local Bus Ports:                 0
   Private SPM Size:                256kB
   Private Read Ports:              0
   Private Write Ports:             0
   Private Read Bus Width:          64
   Private Write Bus Width:         64
       Memory Reads:                0
       Memory Writes:               0
   ========= Power Analysis ======================
   FU Leakage Power:                1.265749 mW 
   FU Dynamic Power:                1.166708 mW 
   FU Total Power:                  2.432457 mW 

   Registers Leakage Power:          0.011908 mW 
   Registers Dynamic Power:          0.045645 mW 
       Register Reads (Bits):        230408
       Register Writes (Bits):       231961
   Registers Total Power:            0.057553 mW

   SPM Leakage Power:               0.104100 mW
   SPM Read Dynamic Power:          4.599549 mW
   SPM Write Dynamic Power:         2.880682 mW
   SPM Total Power:                 7.584331 mW

   Cache Leakage Power:             0.000000 mW
   Cache Read Dynamic Power:        0.000000 mW
   Cache Write Dynamic Power:       0.000000 mW
   Cache Total Power:               0.000000 mW

   Accelerator Power:               2.490010 mW
   Accelerator Power (SPM):         10.074342 mW
   Accelerator Power (Cache):       2.490010 mW

   ========= Area Analysis =======================
   FU Area:                         170559.593750 um^2 (0.170560 mm^2)
   Register Area:                   967.909180 um^2 (0.000968 mm^2)
   SPM Area:                        2177.365505 um^2 (0.002177 mm^2)
   Cache Area:                      0.000000 um^2 (0.000000 mm^2)

   Accelerator Area:                171527.500000 um^2 (0.171527 mm^2)
   Accelerator Area (SPM):          173704.865505 um^2 (0.173705 mm^2)
   Accelerator Area (Cache):        171527.500000 um^2 (0.171527 mm^2)

   ========= SPM Resizing  =======================
   SPM Optimized Leakage Power:     0.003887 mW
   SPM Opt Area:                    172.850411 um^2

3848061250: global: Timer #0 started at tick 3848061250
3848356875: global: Timer #3 started at tick 3848356875
3848453750: global: Timer #4 started at tick 3848453750
3848492500: global: Timer #4 stopped at tick 3848492500. Duration: 38750
3848505625: global: Timer #5 started at tick 3848505625
3848520625: global: Timer #5 stopped at tick 3848520625. Duration: 15000
3848782500: global: Timer #3 stopped at tick 3848782500. Duration: 425625
3848831875: global: Timer #2 started at tick 3848831875
3848978125: global: Timer #2 stopped at tick 3848978125. Duration: 146250
3849240625: global: DAG ID = 2
3849254375: global: Node ID = 3
3849267500: global: Node deadline difference = -3642
3849280000: global: Predicted memory time / byte = 0.000238963 us/byte
3849292500: global: Predicted memory time = 15.6607 us
3849305000: global: Predicted memory time / byte = 0.000238963 us/byte
3849317500: global: Predicted memory time = 15.6607 us
3849330000: global: Predicted memory time / byte = 0 us/byte
3849342500: global: Predicted memory time = 0 us
3849355000: global: Predicted memory time / byte = 0 us/byte
3849367500: global: Predicted memory time = 0 us
3849380000: global: Predicted memory access size = 65536
3849392500: global: Predicted memory access size = 0
3849405000: global: Predicted memory access size = 65536
3849417500: global: Predicted memory access size = 0
3862840875: system.acctest.elem_matrix0_dma: SRC:0x0000000082394800, DST:0x0000000024010020, LEN:65536
3863053125: global: Timer #0 stopped at tick 3863053125. Duration: 14991875
3863069375: global: Number of accelerators running = 2
3874789875: system.acctest.elem_matrix0_dma: Transfer completed in 11.949 us
3874953125: global: Timer #0 started at tick 3874953125
3875443125: global: Timer #1 started at tick 3875443125
3875838125: global: Timer #1 stopped at tick 3875838125. Duration: 395000
3877586875: global: Timer #0 stopped at tick 3877586875. Duration: 2633750
3877603125: global: Number of accelerators running = 2
********************************************************************************
system.acctest.elem_matrix0.compute
   ========= Performance Analysis =============
   Setup Time:                      7.724753seconds
   Simulation Time:                 193.553164seconds
   System Clock:                    1.000000GHz
   Transistor Latency:              1ns
   Runtime:                         10932 cycles
   Runtime:                         10.932000 us
   Stalls:                          1 cycles
   Executed Nodes:                  10930 cycles

********************************************************************************
   ========= Performance Analysis =================
   Setup Time:                      7724753297.000000ns
   Simulation Time:                 193553163714.000000ns
   System Clock:                    1.000000GHz
   Transistor Latency:              0ns
   Runtime:                         10932 cycles
   Runtime:                         0.000001 seconds
   Stalls:                          1 cycles
       Load Only:                   0 cycles
       Store Only:                  1 cycles
       Compute Only:                0 cycles
       Compute & Store:             0 cycles
       Load & Store:                0 cycles
       Load & Compute:              0 cycles
       Load & Compute & Store:      0 cycles
   Executed Nodes:                  10930 cycles
       Load Only:                   0 cycles
       Store Only:                  4 cycles
       Compute Only:                1 cycles
       Compute & Store:             21 cycles
       Load & Store:                0 cycles
       Load & Compute:              6 cycles
       Load & Compute & Store:      10898 cycles

   ========= Runtime FU's ========= (Max | Avg) ===
   Counter FU's:                      32 | 0.046838
   Integer Add/Sub FU's:               0 | 0.000000
   Integer Mul/Div FU's:               0 | 0.000000
   Integer Shifter FU's:               0 | 0.000000
   Integer Bitwise FU's:               1 | 0.000091
   Floating Point Float Add/Sub:       0 | 0.000000
   Floating Point Double Add/Sub:      0 | 0.000000
   Floating Point Float Mul/Div:      34 | 0.044252
   Floating Point Double Mul/Div:      0 | 0.000000
   0 Cycle Compare FU's:             102 | 0.046945
   GEP Instruction FU's:              96 | 0.046835
   Type Conversion FU's:               7 | 0.006782

   ========= Static FU's ==========================
   Counter FU's:                    0
   Integer Add/Sub FU's:            0
   Integer Mul/Div FU's:            0
   Integer Shifter FU's:            0
   Integer Bitwise FU's:            0
   Floating Point Float Add/Sub:    0
   Floating Point Double Add/Sub:   0
   Floating Point Float Mul/Div:    0
   Floating Point Double Mul/Div:   0
   0 Cycle Compare FU's:            0
   GEP Instruction FU's:            0
   Type Conversion FU's:            0
   Other:                           0

   ========= Pipeline Register Usage =============
   Total Number of Registers:       5641
   Max Register Usage Per Cycle:    137
   Avg Register Usage Per Cycle:    12.130992
   Avg Register Size (Bytes):       5.980606

   ========= Memory Configuration =================
   Cache Bus Ports:                 0
   Shared Cache Size:               0kB
   Local Bus Ports:                 0
   Private SPM Size:                256kB
   Private Read Ports:              0
   Private Write Ports:             0
   Private Read Bus Width:          64
   Private Write Bus Width:         64
       Memory Reads:                0
       Memory Writes:               0
   ========= Power Analysis ======================
   FU Leakage Power:                0.045377 mW 
   FU Dynamic Power:                0.142576 mW 
   FU Total Power:                  0.187953 mW 

   Registers Leakage Power:          0.005281 mW 
   Registers Dynamic Power:          0.015326 mW 
       Register Reads (Bits):        132616
       Register Writes (Bits):       133658
   Registers Total Power:            0.020607 mW

   SPM Leakage Power:               0.104100 mW
   SPM Read Dynamic Power:          4.784107 mW
   SPM Write Dynamic Power:         3.448926 mW
   SPM Total Power:                 8.337133 mW

   Cache Leakage Power:             0.000000 mW
   Cache Read Dynamic Power:        0.000000 mW
   Cache Write Dynamic Power:       0.000000 mW
   Cache Total Power:               0.000000 mW

   Accelerator Power:               0.208559 mW
   Accelerator Power (SPM):         8.545693 mW
   Accelerator Power (Cache):       0.208559 mW

   ========= Area Analysis =======================
   FU Area:                         5472.068359 um^2 (0.005472 mm^2)
   Register Area:                   429.271088 um^2 (0.000429 mm^2)
   SPM Area:                        2177.365505 um^2 (0.002177 mm^2)
   Cache Area:                      0.000000 um^2 (0.000000 mm^2)

   Accelerator Area:                5901.339355 um^2 (0.005901 mm^2)
   Accelerator Area (SPM):          8078.704860 um^2 (0.008079 mm^2)
   Accelerator Area (Cache):        5901.339355 um^2 (0.005901 mm^2)

   ========= SPM Resizing  =======================
   SPM Optimized Leakage Power:     0.004248 mW
   SPM Opt Area:                    178.524902 um^2

3888292500: global: Timer #0 started at tick 3888292500
3901809500: system.acctest.elem_matrix0_dma: SRC:0x0000000024020020, DST:0x00000000822b4640, LEN:65536
3902181875: global: Timer #0 stopped at tick 3902181875. Duration: 13889375
3902198125: global: Number of accelerators running = 2
3908087500: system.acctest.elem_matrix0_dma: Transfer completed in 6.278 us
3908163125: global: Timer #0 started at tick 3908163125
3908494375: global: Timer #1 started at tick 3908494375
3908688750: global: Timer #1 stopped at tick 3908688750. Duration: 194375
3908924375: global: DAG ID = 2
3908938125: global: Node ID = 4
3908956250: global: Node deadline difference = -3640
3908968750: global: Predicted memory time / byte = 0.000238963 us/byte
3908981250: global: Predicted memory time = 31.3214 us
3908993750: global: Predicted memory time / byte = 0.000238963 us/byte
3909006250: global: Predicted memory time = 15.6607 us
3909018750: global: Predicted memory time / byte = 0.00018486 us/byte
3909031250: global: Predicted memory time = 12.115 us
3909043750: global: Predicted memory time / byte = 9.57489e-05 us/byte
3909056250: global: Predicted memory time = 6.275 us
3909068750: global: Predicted memory access size = 131072
3909081250: global: Predicted memory access size = 65536
3909093750: global: Predicted memory access size = 65536
3909106250: global: Predicted memory access size = 65536
3922555875: system.acctest.elem_matrix0_dma: SRC:0x0000000082274640, DST:0x0000000024000020, LEN:65536
3922766875: global: Timer #0 stopped at tick 3922766875. Duration: 14603750
3922783125: global: Number of accelerators running = 2
3934491875: system.acctest.elem_matrix0_dma: Transfer completed in 11.936 us
3934699375: global: Timer #0 started at tick 3934699375
3935146250: global: Timer #1 started at tick 3935146250
3935535625: global: Timer #1 stopped at tick 3935535625. Duration: 389375
3949037375: system.acctest.elem_matrix0_dma: SRC:0x00000000822044c0, DST:0x0000000024010020, LEN:65536
3949288125: global: Timer #0 stopped at tick 3949288125. Duration: 14588750
3949304375: global: Number of accelerators running = 2
3961037375: system.acctest.elem_matrix0_dma: Transfer completed in 12 us
3961113125: global: Timer #0 started at tick 3961113125
3961569375: global: Timer #1 started at tick 3961569375
3961915000: global: Timer #1 stopped at tick 3961915000. Duration: 345625
3963512500: global: Timer #0 stopped at tick 3963512500. Duration: 2399375
3963528750: global: Number of accelerators running = 2
********************************************************************************
system.acctest.elem_matrix0.compute
   ========= Performance Analysis =============
   Setup Time:                      8.155899seconds
   Simulation Time:                 193.286767seconds
   System Clock:                    1.000000GHz
   Transistor Latency:              1ns
   Runtime:                         10932 cycles
   Runtime:                         10.932000 us
   Stalls:                          1 cycles
   Executed Nodes:                  10930 cycles

********************************************************************************
   ========= Performance Analysis =================
   Setup Time:                      8155898950.999999ns
   Simulation Time:                 193286766853.000000ns
   System Clock:                    1.000000GHz
   Transistor Latency:              0ns
   Runtime:                         10932 cycles
   Runtime:                         0.000001 seconds
   Stalls:                          1 cycles
       Load Only:                   0 cycles
       Store Only:                  1 cycles
       Compute Only:                0 cycles
       Compute & Store:             0 cycles
       Load & Store:                0 cycles
       Load & Compute:              0 cycles
       Load & Compute & Store:      0 cycles
   Executed Nodes:                  10930 cycles
       Load Only:                   0 cycles
       Store Only:                  4 cycles
       Compute Only:                1 cycles
       Compute & Store:             21 cycles
       Load & Store:                0 cycles
       Load & Compute:              6 cycles
       Load & Compute & Store:      10898 cycles

   ========= Runtime FU's ========= (Max | Avg) ===
   Counter FU's:                      32 | 0.046838
   Integer Add/Sub FU's:               0 | 0.000000
   Integer Mul/Div FU's:               0 | 0.000000
   Integer Shifter FU's:               0 | 0.000000
   Integer Bitwise FU's:               1 | 0.000091
   Floating Point Float Add/Sub:       0 | 0.000000
   Floating Point Double Add/Sub:      0 | 0.000000
   Floating Point Float Mul/Div:      34 | 0.044252
   Floating Point Double Mul/Div:      0 | 0.000000
   0 Cycle Compare FU's:             102 | 0.046945
   GEP Instruction FU's:              96 | 0.046835
   Type Conversion FU's:               7 | 0.006782

   ========= Static FU's ==========================
   Counter FU's:                    0
   Integer Add/Sub FU's:            0
   Integer Mul/Div FU's:            0
   Integer Shifter FU's:            0
   Integer Bitwise FU's:            0
   Floating Point Float Add/Sub:    0
   Floating Point Double Add/Sub:   0
   Floating Point Float Mul/Div:    0
   Floating Point Double Mul/Div:   0
   0 Cycle Compare FU's:            0
   GEP Instruction FU's:            0
   Type Conversion FU's:            0
   Other:                           0

   ========= Pipeline Register Usage =============
   Total Number of Registers:       5641
   Max Register Usage Per Cycle:    137
   Avg Register Usage Per Cycle:    12.130992
   Avg Register Size (Bytes):       5.980606

   ========= Memory Configuration =================
   Cache Bus Ports:                 0
   Shared Cache Size:               0kB
   Local Bus Ports:                 0
   Private SPM Size:                256kB
   Private Read Ports:              0
   Private Write Ports:             0
   Private Read Bus Width:          64
   Private Write Bus Width:         64
       Memory Reads:                0
       Memory Writes:               0
   ========= Power Analysis ======================
   FU Leakage Power:                0.045377 mW 
   FU Dynamic Power:                0.142576 mW 
   FU Total Power:                  0.187953 mW 

   Registers Leakage Power:          0.005281 mW 
   Registers Dynamic Power:          0.015326 mW 
       Register Reads (Bits):        132616
       Register Writes (Bits):       133658
   Registers Total Power:            0.020607 mW

   SPM Leakage Power:               0.104100 mW
   SPM Read Dynamic Power:          5.190014 mW
   SPM Write Dynamic Power:         3.846212 mW
   SPM Total Power:                 9.140327 mW

   Cache Leakage Power:             0.000000 mW
   Cache Read Dynamic Power:        0.000000 mW
   Cache Write Dynamic Power:       0.000000 mW
   Cache Total Power:               0.000000 mW

   Accelerator Power:               0.208559 mW
   Accelerator Power (SPM):         9.348887 mW
   Accelerator Power (Cache):       0.208559 mW

   ========= Area Analysis =======================
   FU Area:                         5472.068359 um^2 (0.005472 mm^2)
   Register Area:                   429.271088 um^2 (0.000429 mm^2)
   SPM Area:                        2177.365505 um^2 (0.002177 mm^2)
   Cache Area:                      0.000000 um^2 (0.000000 mm^2)

   Accelerator Area:                5901.339355 um^2 (0.005901 mm^2)
   Accelerator Area (SPM):          8078.704860 um^2 (0.008079 mm^2)
   Accelerator Area (Cache):        5901.339355 um^2 (0.005901 mm^2)

   ========= SPM Resizing  =======================
   SPM Optimized Leakage Power:     0.004248 mW
   SPM Opt Area:                    178.524902 um^2

3974279375: global: Timer #0 started at tick 3974279375
3974573125: global: Timer #3 started at tick 3974573125
3974656250: global: Timer #4 started at tick 3974656250
3974695000: global: Timer #4 stopped at tick 3974695000. Duration: 38750
3974708125: global: Timer #5 started at tick 3974708125
3974725625: global: Timer #5 stopped at tick 3974725625. Duration: 17500
3974926875: global: Timer #3 stopped at tick 3974926875. Duration: 353750
3974978125: global: Timer #2 started at tick 3974978125
3975120625: global: Timer #2 stopped at tick 3975120625. Duration: 142500
3975363750: global: DAG ID = 2
3975377500: global: Node ID = 5
3975390625: global: Node deadline difference = -3419
3975403125: global: Predicted memory time / byte = 0.000214574 us/byte
3975415625: global: Predicted memory time = 28.1247 us
3975428125: global: Predicted memory time / byte = 0.000214574 us/byte
3975440625: global: Predicted memory time = 14.0623 us
[...]
   Integer Bitwise FU's:               1 | 0.000091
   Floating Point Float Add/Sub:      34 | 0.044252
   Floating Point Double Add/Sub:      0 | 0.000000
   Floating Point Float Mul/Div:       0 | 0.000000
   Floating Point Double Mul/Div:      0 | 0.000000
   0 Cycle Compare FU's:             102 | 0.046974
   GEP Instruction FU's:              96 | 0.046835
   Type Conversion FU's:               7 | 0.006782

   ========= Static FU's ==========================
   Counter FU's:                    0
   Integer Add/Sub FU's:            0
   Integer Mul/Div FU's:            0
   Integer Shifter FU's:            0
   Integer Bitwise FU's:            0
   Floating Point Float Add/Sub:    0
   Floating Point Double Add/Sub:   0
   Floating Point Float Mul/Div:    0
   Floating Point Double Mul/Div:   0
   0 Cycle Compare FU's:            0
   GEP Instruction FU's:            0
   Type Conversion FU's:            0
   Other:                           0

   ========= Pipeline Register Usage =============
   Total Number of Registers:       5641
   Max Register Usage Per Cycle:    138
   Avg Register Usage Per Cycle:    12.130992
   Avg Register Size (Bytes):       5.980606

   ========= Memory Configuration =================
   Cache Bus Ports:                 0
   Shared Cache Size:               0kB
   Local Bus Ports:                 0
   Private SPM Size:                256kB
   Private Read Ports:              0
   Private Write Ports:             0
   Private Read Bus Width:          64
   Private Write Bus Width:         64
       Memory Reads:                0
       Memory Writes:               0
   ========= Power Analysis ======================
   FU Leakage Power:                0.519269 mW 
   FU Dynamic Power:                0.154621 mW 
   FU Total Power:                  0.673890 mW 

   Registers Leakage Power:          0.005281 mW 
   Registers Dynamic Power:          0.015326 mW 
       Register Reads (Bits):        132616
       Register Writes (Bits):       133658
   Registers Total Power:            0.020607 mW

   SPM Leakage Power:               0.104100 mW
   SPM Read Dynamic Power:          25.407676 mW
   SPM Write Dynamic Power:         20.063116 mW
   SPM Total Power:                 45.574892 mW

   Cache Leakage Power:             0.000000 mW
   Cache Read Dynamic Power:        0.000000 mW
   Cache Write Dynamic Power:       0.000000 mW
   Cache Total Power:               0.000000 mW

   Accelerator Power:               0.694497 mW
   Accelerator Power (SPM):         46.269389 mW
   Accelerator Power (Cache):       0.694497 mW

   ========= Area Analysis =======================
   FU Area:                         70212.562500 um^2 (0.070213 mm^2)
   Register Area:                   429.271088 um^2 (0.000429 mm^2)
   SPM Area:                        2177.365505 um^2 (0.002177 mm^2)
   Cache Area:                      0.000000 um^2 (0.000000 mm^2)

   Accelerator Area:                70641.835938 um^2 (0.070642 mm^2)
   Accelerator Area (SPM):          72819.201442 um^2 (0.072819 mm^2)
   Accelerator Area (Cache):        70641.835938 um^2 (0.070642 mm^2)

   ========= SPM Resizing  =======================
   SPM Optimized Leakage Power:     0.004248 mW
   SPM Opt Area:                    178.524902 um^2

14678283125: global: Timer #0 started at tick 14678283125
14678566250: global: Timer #3 started at tick 14678566250
14678585625: global: Timer #4 started at tick 14678585625
14678624375: global: Timer #4 stopped at tick 14678624375. Duration: 38750
14678637500: global: Timer #5 started at tick 14678637500
14678655000: global: Timer #5 stopped at tick 14678655000. Duration: 17500
14678844375: global: Timer #3 stopped at tick 14678844375. Duration: 278125
14678888125: global: Timer #2 started at tick 14678888125
14678950625: global: Timer #2 stopped at tick 14678950625. Duration: 62500
14679192500: global: DAG ID = 1
14679206250: global: Node ID = 13
14679219375: global: Node deadline difference = -5456
14679231875: global: Predicted memory time / byte = 0.000169754 us/byte
14679244375: global: Predicted memory time = 22.25 us
14679256875: global: Predicted memory time / byte = 0.000169754 us/byte
14679269375: global: Predicted memory time = 11.125 us
14679281875: global: Predicted memory time / byte = 0.000184097 us/byte
14679294375: global: Predicted memory time = 12.065 us
14679306875: global: Predicted memory time / byte = 0 us/byte
14679319375: global: Predicted memory time = 0 us
14679331875: global: Predicted memory access size = 131072
14679344375: global: Predicted memory access size = 65536
14679356875: global: Predicted memory access size = 65536
14679369375: global: Predicted memory access size = 0
14692817375: system.acctest.elem_matrix0_dma: SRC:0x00000000821c0340, DST:0x0000000024000020, LEN:65536
14693041250: global: Timer #0 stopped at tick 14693041250. Duration: 14758125
14693057500: global: Number of accelerators running = 1
14704789375: system.acctest.elem_matrix0_dma: Transfer completed in 11.972 us
14704997500: global: Timer #0 started at tick 14704997500
14705358125: global: Timer #1 started at tick 14705358125
14705851250: global: Timer #1 stopped at tick 14705851250. Duration: 493125
14707358750: global: Timer #0 stopped at tick 14707358750. Duration: 2361250
14707375000: global: Number of accelerators running = 1
********************************************************************************
system.acctest.elem_matrix0.compute
   ========= Performance Analysis =============
   Setup Time:                      6.161661seconds
   Simulation Time:                 120.217920seconds
   System Clock:                    1.000000GHz
   Transistor Latency:              1ns
   Runtime:                         10932 cycles
   Runtime:                         10.932000 us
   Stalls:                          0 cycles
   Executed Nodes:                  10931 cycles

********************************************************************************
   ========= Performance Analysis =================
   Setup Time:                      6161661080.000000ns
   Simulation Time:                 120217919574.000000ns
   System Clock:                    1.000000GHz
   Transistor Latency:              0ns
   Runtime:                         10932 cycles
   Runtime:                         0.000001 seconds
   Stalls:                          0 cycles
       Load Only:                   0 cycles
       Store Only:                  0 cycles
       Compute Only:                0 cycles
       Compute & Store:             0 cycles
       Load & Store:                0 cycles
       Load & Compute:              0 cycles
       Load & Compute & Store:      0 cycles
   Executed Nodes:                  10931 cycles
       Load Only:                   0 cycles
       Store Only:                  5 cycles
       Compute Only:                1 cycles
       Compute & Store:             21 cycles
       Load & Store:                0 cycles
       Load & Compute:              7 cycles
       Load & Compute & Store:      10897 cycles

   ========= Runtime FU's ========= (Max | Avg) ===
   Counter FU's:                      32 | 0.046838
   Integer Add/Sub FU's:               0 | 0.000000
   Integer Mul/Div FU's:               0 | 0.000000
   Integer Shifter FU's:               0 | 0.000000
   Integer Bitwise FU's:               1 | 0.000091
   Floating Point Float Add/Sub:      34 | 0.044252
   Floating Point Double Add/Sub:      0 | 0.000000
   Floating Point Float Mul/Div:       0 | 0.000000
   Floating Point Double Mul/Div:      0 | 0.000000
   0 Cycle Compare FU's:             102 | 0.046974
   GEP Instruction FU's:              96 | 0.046835
   Type Conversion FU's:               7 | 0.006782

   ========= Static FU's ==========================
   Counter FU's:                    0
   Integer Add/Sub FU's:            0
   Integer Mul/Div FU's:            0
   Integer Shifter FU's:            0
   Integer Bitwise FU's:            0
   Floating Point Float Add/Sub:    0
   Floating Point Double Add/Sub:   0
   Floating Point Float Mul/Div:    0
   Floating Point Double Mul/Div:   0
   0 Cycle Compare FU's:            0
   GEP Instruction FU's:            0
   Type Conversion FU's:            0
   Other:                           0

   ========= Pipeline Register Usage =============
   Total Number of Registers:       5641
   Max Register Usage Per Cycle:    138
   Avg Register Usage Per Cycle:    12.130992
   Avg Register Size (Bytes):       5.980606

   ========= Memory Configuration =================
   Cache Bus Ports:                 0
   Shared Cache Size:               0kB
   Local Bus Ports:                 0
   Private SPM Size:                256kB
   Private Read Ports:              0
   Private Write Ports:             0
   Private Read Bus Width:          64
   Private Write Bus Width:         64
       Memory Reads:                0
       Memory Writes:               0
   ========= Power Analysis ======================
   FU Leakage Power:                0.519269 mW 
   FU Dynamic Power:                0.154621 mW 
   FU Total Power:                  0.673890 mW 

   Registers Leakage Power:          0.005281 mW 
   Registers Dynamic Power:          0.015326 mW 
       Register Reads (Bits):        132616
       Register Writes (Bits):       133658
   Registers Total Power:            0.020607 mW

   SPM Leakage Power:               0.104100 mW
   SPM Read Dynamic Power:          25.507843 mW
   SPM Write Dynamic Power:         20.114600 mW
   SPM Total Power:                 45.726543 mW

   Cache Leakage Power:             0.000000 mW
   Cache Read Dynamic Power:        0.000000 mW
   Cache Write Dynamic Power:       0.000000 mW
   Cache Total Power:               0.000000 mW

   Accelerator Power:               0.694497 mW
   Accelerator Power (SPM):         46.421039 mW
   Accelerator Power (Cache):       0.694497 mW

   ========= Area Analysis =======================
   FU Area:                         70212.562500 um^2 (0.070213 mm^2)
   Register Area:                   429.271088 um^2 (0.000429 mm^2)
   SPM Area:                        2177.365505 um^2 (0.002177 mm^2)
   Cache Area:                      0.000000 um^2 (0.000000 mm^2)

   Accelerator Area:                70641.835938 um^2 (0.070642 mm^2)
   Accelerator Area (SPM):          72819.201442 um^2 (0.072819 mm^2)
   Accelerator Area (Cache):        70641.835938 um^2 (0.070642 mm^2)

   ========= SPM Resizing  =======================
   SPM Optimized Leakage Power:     0.004248 mW
   SPM Opt Area:                    178.524902 um^2

14718138125: global: Timer #0 started at tick 14718138125
14718488750: global: Timer #3 started at tick 14718488750
14718508125: global: Timer #4 started at tick 14718508125
14718538750: global: Timer #4 stopped at tick 14718538750. Duration: 30625
14718551875: global: Timer #5 started at tick 14718551875
14718566875: global: Timer #5 stopped at tick 14718566875. Duration: 15000
14718760625: global: Timer #3 stopped at tick 14718760625. Duration: 271875
14718804375: global: Timer #2 started at tick 14718804375
14718854375: global: Timer #2 stopped at tick 14718854375. Duration: 50000
14719100625: global: DAG ID = 1
14719114375: global: Node ID = 16
14719127500: global: Node deadline difference = -5473
14719140000: global: Predicted memory time / byte = 0.000169828 us/byte
14719152500: global: Predicted memory time = 22.2596 us
14719165000: global: Predicted memory time / byte = 0.000169828 us/byte
14719177500: global: Predicted memory time = 11.1298 us
14719190000: global: Predicted memory time / byte = 0.000184448 us/byte
14719202500: global: Predicted memory time = 12.088 us
14719215000: global: Predicted memory time / byte = 0 us/byte
14719227500: global: Predicted memory time = 0 us
14719240000: global: Predicted memory access size = 131072
14719252500: global: Predicted memory access size = 65536
14719265000: global: Predicted memory access size = 65536
14719277500: global: Predicted memory access size = 0
14720291625: system.acctest.harris_non_max0_dma: SRC:0x0000000024010020, DST:0x0000000026000020, LEN:65536
14720622500: global: Timer #0 stopped at tick 14720622500. Duration: 2484375
14720638750: global: Number of accelerators running = 1
14730552625: system.acctest.harris_non_max0_dma: Transfer completed in 10.261 us
14730694375: global: Timer #0 started at tick 14730694375
14731182500: global: Timer #1 started at tick 14731182500
14731588125: global: Timer #1 stopped at tick 14731588125. Duration: 405625
14732936250: global: Timer #0 stopped at tick 14732936250. Duration: 2241875
14733037500: global: Number of accelerators running = 1
********************************************************************************
system.acctest.harris_non_max0.compute
   ========= Performance Analysis =============
   Setup Time:                      0.011704seconds
   Simulation Time:                 3.555868seconds
   System Clock:                    1.000000GHz
   Transistor Latency:              1ns
   Runtime:                         105010 cycles
   Runtime:                         105.010000 us
   Stalls:                          0 cycles
   Executed Nodes:                  105009 cycles

********************************************************************************
   ========= Performance Analysis =================
   Setup Time:                      11704206.000000ns
   Simulation Time:                 3555867856.000000ns
   System Clock:                    1.000000GHz
   Transistor Latency:              0ns
   Runtime:                         105010 cycles
   Runtime:                         0.000011 seconds
   Stalls:                          0 cycles
       Load Only:                   0 cycles
       Store Only:                  0 cycles
       Compute Only:                0 cycles
       Compute & Store:             0 cycles
       Load & Store:                0 cycles
       Load & Compute:              0 cycles
       Load & Compute & Store:      0 cycles
   Executed Nodes:                  105009 cycles
       Load Only:                   0 cycles
       Store Only:                  0 cycles
       Compute Only:                72241 cycles
       Compute & Store:             16384 cycles
       Load & Store:                0 cycles
       Load & Compute:              16384 cycles
       Load & Compute & Store:      0 cycles

   ========= Runtime FU's ========= (Max | Avg) ===
   Counter FU's:                       2 | 0.167889
   Integer Add/Sub FU's:               2 | 0.261670
   Integer Mul/Div FU's:               0 | 0.000000
   Integer Shifter FU's:               3 | 0.018017
   Integer Bitwise FU's:               1 | 0.472964
   Floating Point Float Add/Sub:       0 | 0.000000
   Floating Point Double Add/Sub:      0 | 0.000000
   Floating Point Float Mul/Div:       0 | 0.000000
   Floating Point Double Mul/Div:      0 | 0.000000
   0 Cycle Compare FU's:              26 | 0.199329
   GEP Instruction FU's:               3 | 0.208571
   Type Conversion FU's:              14 | 0.062158

   ========= Static FU's ==========================
   Counter FU's:                    0
   Integer Add/Sub FU's:            0
   Integer Mul/Div FU's:            0
   Integer Shifter FU's:            0
   Integer Bitwise FU's:            0
   Floating Point Float Add/Sub:    0
   Floating Point Double Add/Sub:   0
   Floating Point Float Mul/Div:    0
   Floating Point Double Mul/Div:   0
   0 Cycle Compare FU's:            0
   GEP Instruction FU's:            0
   Type Conversion FU's:            0
   Other:                           0

   ========= Pipeline Register Usage =============
   Total Number of Registers:       146
   Max Register Usage Per Cycle:    20
   Avg Register Usage Per Cycle:    5.029864
   Avg Register Size (Bytes):       5.546762

   ========= Memory Configuration =================
   Cache Bus Ports:                 0
   Shared Cache Size:               0kB
   Local Bus Ports:                 0
   Private SPM Size:                192kB
   Private Read Ports:              0
   Private Write Ports:             0
   Private Read Bus Width:          64
   Private Write Bus Width:         64
       Memory Reads:                0
       Memory Writes:               0
   ========= Power Analysis ======================
   FU Leakage Power:                0.010458 mW 
   FU Dynamic Power:                2.202634 mW 
   FU Total Power:                  2.213092 mW 

   Registers Leakage Power:          0.002041 mW 
   Registers Dynamic Power:          0.236415 mW 
       Register Reads (Bits):        528188
       Register Writes (Bits):       578368
   Registers Total Power:            0.238456 mW

   SPM Leakage Power:               0.068382 mW
   SPM Read Dynamic Power:          0.522209 mW
   SPM Write Dynamic Power:         0.561696 mW
   SPM Total Power:                 1.152287 mW

   Cache Leakage Power:             0.000000 mW
   Cache Read Dynamic Power:        0.000000 mW
   Cache Write Dynamic Power:       0.000000 mW
   Cache Total Power:               0.000000 mW

   Accelerator Power:               2.451548 mW
   Accelerator Power (SPM):         3.603836 mW
   Accelerator Power (Cache):       2.451548 mW

   ========= Area Analysis =======================
   FU Area:                         799.308228 um^2 (0.000799 mm^2)
   Register Area:                   165.887924 um^2 (0.000166 mm^2)
   SPM Area:                        1011.904012 um^2 (0.001012 mm^2)
   Cache Area:                      0.000000 um^2 (0.000000 mm^2)

   Accelerator Area:                965.196167 um^2 (0.000965 mm^2)
   Accelerator Area (SPM):          1977.100179 um^2 (0.001977 mm^2)
   Accelerator Area (Cache):        965.196167 um^2 (0.000965 mm^2)

   ========= SPM Resizing  =======================
   SPM Optimized Leakage Power:     0.001770 mW
   SPM Opt Area:                    77.453784 um^2

14837638750: global: Timer #0 started at tick 14837638750
14841616625: system.acctest.harris_non_max0_dma: SRC:0x0000000026010020, DST:0x00000000821e04c0, LEN:16384
14841987500: global: Timer #0 stopped at tick 14841987500. Duration: 4348750
14842003750: global: Number of accelerators running = 1
14843248625: system.acctest.harris_non_max0_dma: Transfer completed in 1.632 us
14843325000: global: Timer #0 started at tick 14843325000
14843696875: global: Timer #1 started at tick 14843696875
14844058125: global: Timer #1 stopped at tick 14844058125. Duration: 361250
14844269375: global: DAG ID = 1
14844283125: global: Node ID = 17
14844306875: global: DAG execution time = 11194
14844320000: global: DAG deadline difference = -5473
14844337500: global: Node deadline difference = -5473
14844350000: global: Predicted memory time / byte = 0.000171697 us/byte
14844362500: global: Predicted memory time = 11.2523 us
14844375000: global: Predicted memory time / byte = 0.000171697 us/byte
14844387500: global: Predicted memory time = 2.81309 us
14844400000: global: Predicted memory time / byte = 0.000157928 us/byte
14844412500: global: Predicted memory time = 10.35 us
14844425000: global: Predicted memory time / byte = 0.000101624 us/byte
14844437500: global: Predicted memory time = 1.665 us
14844450000: global: Predicted memory access size = 65536
14844462500: global: Predicted memory access size = 65536
14844475000: global: Predicted memory access size = 16384
14844487500: global: Predicted memory access size = 16384
14844591250: global: Timer #0 stopped at tick 14844591250. Duration: 1266250
14844607500: global: Number of accelerators running = 0
14844700000: global: Number of forwards = 135
14844853125: global: Number of colocations = 126
14844872500: global: Number of DAG deadlines met = 3
14844891875: global: Number of node deadlines met = 174
14845053125: global: Total predicted compute time = 11155 us
Exiting @ tick 14845406250 because m5_exit instruction encountered
