
---------- Begin Simulation Statistics ----------
final_tick                                32846342500                       # Number of ticks from beginning of simulation (restored from checkpoints and never reset)
host_inst_rate                                    449                       # Simulator instruction rate (inst/s)
host_mem_usage                               11026208                       # Number of bytes of host memory used
host_op_rate                                      461                       # Simulator op (including micro ops) rate (op/s)
host_seconds                                 32358.17                       # Real time elapsed on the host
host_tick_rate                                 801636                       # Simulator tick rate (ticks/s)
sim_freq                                 1000000000000                       # Frequency of simulated ticks
sim_insts                                    14538556                       # Number of instructions simulated
sim_ops                                      14912117                       # Number of ops (including micro ops) simulated
sim_seconds                                  0.025939                       # Number of seconds simulated
sim_ticks                                 25939475000                       # Number of ticks simulated
system.acctest.coherency_bus.snoop_filter.hit_multi_requests            0                       # Number of requests hitting in the snoop filter with multiple (>1) holders of the requested data.
system.acctest.coherency_bus.snoop_filter.hit_multi_snoops            0                       # Number of snoops hitting in the snoop filter with multiple (>1) holders of the requested data.
system.acctest.coherency_bus.snoop_filter.hit_single_requests            0                       # Number of requests hitting in the snoop filter with a single holder of the requested data.
system.acctest.coherency_bus.snoop_filter.hit_single_snoops            0                       # Number of snoops hitting in the snoop filter with a single holder of the requested data.
system.acctest.coherency_bus.snoop_filter.tot_requests            0                       # Total number of requests made to the snoop filter.
system.acctest.coherency_bus.snoop_filter.tot_snoops            0                       # Total number of snoops made to the snoop filter.
system.cf0.dma_read_bytes                           0                       # Number of bytes transfered via DMA reads (not PRD).
system.cf0.dma_read_full_pages                      0                       # Number of full page size DMA reads (not PRD).
system.cf0.dma_read_txs                             0                       # Number of DMA read transactions (not PRD).
system.cf0.dma_write_bytes                          0                       # Number of bytes transfered via DMA writes.
system.cf0.dma_write_full_pages                     0                       # Number of full page size DMA writes.
system.cf0.dma_write_txs                            0                       # Number of DMA write transactions.
system.cpu.branchPred.BTBCorrect                    0                       # Number of correct BTB predictions (this stat may not work properly.
system.cpu.branchPred.BTBHitPct             96.755011                       # BTB Hit Percentage
system.cpu.branchPred.BTBHits                  488130                       # Number of BTB hits
system.cpu.branchPred.BTBLookups               504501                       # Number of BTB lookups
system.cpu.branchPred.RASInCorrect                862                       # Number of incorrect RAS predictions.
system.cpu.branchPred.condIncorrect              8461                       # Number of conditional branches incorrect
system.cpu.branchPred.condPredicted            506880                       # Number of conditional branches predicted
system.cpu.branchPred.indirectHits               6469                       # Number of indirect target hits.
system.cpu.branchPred.indirectLookups            8250                       # Number of indirect predictor lookups.
system.cpu.branchPred.indirectMisses             1781                       # Number of indirect misses.
system.cpu.branchPred.lookups                  570869                       # Number of BP lookups
system.cpu.branchPred.usedRAS                   23174                       # Number of times the RAS was used to get a target.
system.cpu.branchPredindirectMispredicted         1239                       # Number of mispredicted indirect branches.
system.cpu.committedInsts                     3360844                       # Number of instructions committed
system.cpu.committedOps                       3419624                       # Number of ops (including micro ops) committed
system.cpu.cpi                               3.141644                       # CPI: cycles per instruction
system.cpu.discardedOps                         21794                       # Number of ops (including micro ops) which were discarded before commit
system.cpu.dtb.accesses                             0                       # DTB accesses
system.cpu.dtb.align_faults                         0                       # Number of TLB faults due to alignment restrictions
system.cpu.dtb.domain_faults                        0                       # Number of TLB faults due to domain restrictions
system.cpu.dtb.flush_entries                        0                       # Number of entries that have been flushed from TLB
system.cpu.dtb.flush_tlb                            0                       # Number of times complete TLB was flushed
system.cpu.dtb.flush_tlb_asid                       0                       # Number of times TLB was flushed by ASID
system.cpu.dtb.flush_tlb_mva                        0                       # Number of times TLB was flushed by MVA
system.cpu.dtb.flush_tlb_mva_asid                   0                       # Number of times TLB was flushed by MVA & ASID
system.cpu.dtb.hits                                 0                       # DTB hits
system.cpu.dtb.inst_accesses                        0                       # ITB inst accesses
system.cpu.dtb.inst_hits                            0                       # ITB inst hits
system.cpu.dtb.inst_misses                          0                       # ITB inst misses
system.cpu.dtb.misses                               0                       # DTB misses
system.cpu.dtb.perms_faults                         0                       # Number of TLB faults due to permissions restrictions
system.cpu.dtb.prefetch_faults                      0                       # Number of TLB faults due to prefetch
system.cpu.dtb.read_accesses                        0                       # DTB read accesses
system.cpu.dtb.read_hits                            0                       # DTB read hits
system.cpu.dtb.read_misses                          0                       # DTB read misses
system.cpu.dtb.stage2_mmu.stage2_tlb.accesses            0                       # DTB accesses
system.cpu.dtb.stage2_mmu.stage2_tlb.align_faults            0                       # Number of TLB faults due to alignment restrictions
system.cpu.dtb.stage2_mmu.stage2_tlb.domain_faults            0                       # Number of TLB faults due to domain restrictions
system.cpu.dtb.stage2_mmu.stage2_tlb.flush_entries            0                       # Number of entries that have been flushed from TLB
system.cpu.dtb.stage2_mmu.stage2_tlb.flush_tlb            0                       # Number of times complete TLB was flushed
system.cpu.dtb.stage2_mmu.stage2_tlb.flush_tlb_asid            0                       # Number of times TLB was flushed by ASID
system.cpu.dtb.stage2_mmu.stage2_tlb.flush_tlb_mva            0                       # Number of times TLB was flushed by MVA
system.cpu.dtb.stage2_mmu.stage2_tlb.flush_tlb_mva_asid            0                       # Number of times TLB was flushed by MVA & ASID
system.cpu.dtb.stage2_mmu.stage2_tlb.hits            0                       # DTB hits
system.cpu.dtb.stage2_mmu.stage2_tlb.inst_accesses            0                       # ITB inst accesses
system.cpu.dtb.stage2_mmu.stage2_tlb.inst_hits            0                       # ITB inst hits
system.cpu.dtb.stage2_mmu.stage2_tlb.inst_misses            0                       # ITB inst misses
system.cpu.dtb.stage2_mmu.stage2_tlb.misses            0                       # DTB misses
system.cpu.dtb.stage2_mmu.stage2_tlb.perms_faults            0                       # Number of TLB faults due to permissions restrictions
system.cpu.dtb.stage2_mmu.stage2_tlb.prefetch_faults            0                       # Number of TLB faults due to prefetch
system.cpu.dtb.stage2_mmu.stage2_tlb.read_accesses            0                       # DTB read accesses
system.cpu.dtb.stage2_mmu.stage2_tlb.read_hits            0                       # DTB read hits
system.cpu.dtb.stage2_mmu.stage2_tlb.read_misses            0                       # DTB read misses
system.cpu.dtb.stage2_mmu.stage2_tlb.walker.walkRequestOrigin_Requested::Data            0                       # Table walker requests started/completed, data/inst
system.cpu.dtb.stage2_mmu.stage2_tlb.walker.walkRequestOrigin_Requested::Inst            0                       # Table walker requests started/completed, data/inst
system.cpu.dtb.stage2_mmu.stage2_tlb.walker.walkRequestOrigin_Requested::total            0                       # Table walker requests started/completed, data/inst
system.cpu.dtb.stage2_mmu.stage2_tlb.walker.walkRequestOrigin_Completed::Data            0                       # Table walker requests started/completed, data/inst
system.cpu.dtb.stage2_mmu.stage2_tlb.walker.walkRequestOrigin_Completed::Inst            0                       # Table walker requests started/completed, data/inst
system.cpu.dtb.stage2_mmu.stage2_tlb.walker.walkRequestOrigin_Completed::total            0                       # Table walker requests started/completed, data/inst
system.cpu.dtb.stage2_mmu.stage2_tlb.walker.walkRequestOrigin::total            0                       # Table walker requests started/completed, data/inst
system.cpu.dtb.stage2_mmu.stage2_tlb.walker.walks            0                       # Table walker walks requested
system.cpu.dtb.stage2_mmu.stage2_tlb.write_accesses            0                       # DTB write accesses
system.cpu.dtb.stage2_mmu.stage2_tlb.write_hits            0                       # DTB write hits
system.cpu.dtb.stage2_mmu.stage2_tlb.write_misses            0                       # DTB write misses
system.cpu.dtb.walker.walkRequestOrigin_Requested::Data            0                       # Table walker requests started/completed, data/inst
system.cpu.dtb.walker.walkRequestOrigin_Requested::Inst            0                       # Table walker requests started/completed, data/inst
system.cpu.dtb.walker.walkRequestOrigin_Requested::total            0                       # Table walker requests started/completed, data/inst
system.cpu.dtb.walker.walkRequestOrigin_Completed::Data            0                       # Table walker requests started/completed, data/inst
system.cpu.dtb.walker.walkRequestOrigin_Completed::Inst            0                       # Table walker requests started/completed, data/inst
system.cpu.dtb.walker.walkRequestOrigin_Completed::total            0                       # Table walker requests started/completed, data/inst
system.cpu.dtb.walker.walkRequestOrigin::total            0                       # Table walker requests started/completed, data/inst
system.cpu.dtb.walker.walks                         0                       # Table walker walks requested
system.cpu.dtb.write_accesses                       0                       # DTB write accesses
system.cpu.dtb.write_hits                           0                       # DTB write hits
system.cpu.dtb.write_misses                         0                       # DTB write misses
system.cpu.fetch2.amo_instructions                  0                       # Number of memory atomic instructions successfully decoded
system.cpu.fetch2.fp_instructions                   0                       # Number of floating point instructions successfully decoded
system.cpu.fetch2.int_instructions            1837048                       # Number of integer instructions successfully decoded
system.cpu.fetch2.load_instructions            174872                       # Number of memory load instructions successfully decoded
system.cpu.fetch2.store_instructions           915403                       # Number of memory store instructions successfully decoded
system.cpu.fetch2.vec_instructions                  0                       # Number of SIMD instructions successfully decoded
system.cpu.idleCycles                         3309751                       # Total number of cycles that the object has spent stopped
system.cpu.ipc                               0.318305                       # IPC: instructions per cycle
system.cpu.itb.accesses                             0                       # DTB accesses
system.cpu.itb.align_faults                         0                       # Number of TLB faults due to alignment restrictions
system.cpu.itb.domain_faults                        0                       # Number of TLB faults due to domain restrictions
system.cpu.itb.flush_entries                        0                       # Number of entries that have been flushed from TLB
system.cpu.itb.flush_tlb                            0                       # Number of times complete TLB was flushed
system.cpu.itb.flush_tlb_asid                       0                       # Number of times TLB was flushed by ASID
system.cpu.itb.flush_tlb_mva                        0                       # Number of times TLB was flushed by MVA
system.cpu.itb.flush_tlb_mva_asid                   0                       # Number of times TLB was flushed by MVA & ASID
system.cpu.itb.hits                                 0                       # DTB hits
system.cpu.itb.inst_accesses                        0                       # ITB inst accesses
system.cpu.itb.inst_hits                            0                       # ITB inst hits
system.cpu.itb.inst_misses                          0                       # ITB inst misses
system.cpu.itb.misses                               0                       # DTB misses
system.cpu.itb.perms_faults                         0                       # Number of TLB faults due to permissions restrictions
system.cpu.itb.prefetch_faults                      0                       # Number of TLB faults due to prefetch
system.cpu.itb.read_accesses                        0                       # DTB read accesses
system.cpu.itb.read_hits                            0                       # DTB read hits
system.cpu.itb.read_misses                          0                       # DTB read misses
system.cpu.itb.stage2_mmu.stage2_tlb.accesses            0                       # DTB accesses
system.cpu.itb.stage2_mmu.stage2_tlb.align_faults            0                       # Number of TLB faults due to alignment restrictions
system.cpu.itb.stage2_mmu.stage2_tlb.domain_faults            0                       # Number of TLB faults due to domain restrictions
system.cpu.itb.stage2_mmu.stage2_tlb.flush_entries            0                       # Number of entries that have been flushed from TLB
system.cpu.itb.stage2_mmu.stage2_tlb.flush_tlb            0                       # Number of times complete TLB was flushed
system.cpu.itb.stage2_mmu.stage2_tlb.flush_tlb_asid            0                       # Number of times TLB was flushed by ASID
system.cpu.itb.stage2_mmu.stage2_tlb.flush_tlb_mva            0                       # Number of times TLB was flushed by MVA
system.cpu.itb.stage2_mmu.stage2_tlb.flush_tlb_mva_asid            0                       # Number of times TLB was flushed by MVA & ASID
system.cpu.itb.stage2_mmu.stage2_tlb.hits            0                       # DTB hits
system.cpu.itb.stage2_mmu.stage2_tlb.inst_accesses            0                       # ITB inst accesses
system.cpu.itb.stage2_mmu.stage2_tlb.inst_hits            0                       # ITB inst hits
system.cpu.itb.stage2_mmu.stage2_tlb.inst_misses            0                       # ITB inst misses
system.cpu.itb.stage2_mmu.stage2_tlb.misses            0                       # DTB misses
system.cpu.itb.stage2_mmu.stage2_tlb.perms_faults            0                       # Number of TLB faults due to permissions restrictions
system.cpu.itb.stage2_mmu.stage2_tlb.prefetch_faults            0                       # Number of TLB faults due to prefetch
system.cpu.itb.stage2_mmu.stage2_tlb.read_accesses            0                       # DTB read accesses
system.cpu.itb.stage2_mmu.stage2_tlb.read_hits            0                       # DTB read hits
system.cpu.itb.stage2_mmu.stage2_tlb.read_misses            0                       # DTB read misses
system.cpu.itb.stage2_mmu.stage2_tlb.walker.walkRequestOrigin_Requested::Data            0                       # Table walker requests started/completed, data/inst
system.cpu.itb.stage2_mmu.stage2_tlb.walker.walkRequestOrigin_Requested::Inst            0                       # Table walker requests started/completed, data/inst
system.cpu.itb.stage2_mmu.stage2_tlb.walker.walkRequestOrigin_Requested::total            0                       # Table walker requests started/completed, data/inst
system.cpu.itb.stage2_mmu.stage2_tlb.walker.walkRequestOrigin_Completed::Data            0                       # Table walker requests started/completed, data/inst
system.cpu.itb.stage2_mmu.stage2_tlb.walker.walkRequestOrigin_Completed::Inst            0                       # Table walker requests started/completed, data/inst
system.cpu.itb.stage2_mmu.stage2_tlb.walker.walkRequestOrigin_Completed::total            0                       # Table walker requests started/completed, data/inst
system.cpu.itb.stage2_mmu.stage2_tlb.walker.walkRequestOrigin::total            0                       # Table walker requests started/completed, data/inst
system.cpu.itb.stage2_mmu.stage2_tlb.walker.walks            0                       # Table walker walks requested
system.cpu.itb.stage2_mmu.stage2_tlb.write_accesses            0                       # DTB write accesses
system.cpu.itb.stage2_mmu.stage2_tlb.write_hits            0                       # DTB write hits
system.cpu.itb.stage2_mmu.stage2_tlb.write_misses            0                       # DTB write misses
system.cpu.itb.walker.walkRequestOrigin_Requested::Data            0                       # Table walker requests started/completed, data/inst
system.cpu.itb.walker.walkRequestOrigin_Requested::Inst            0                       # Table walker requests started/completed, data/inst
system.cpu.itb.walker.walkRequestOrigin_Requested::total            0                       # Table walker requests started/completed, data/inst
system.cpu.itb.walker.walkRequestOrigin_Completed::Data            0                       # Table walker requests started/completed, data/inst
system.cpu.itb.walker.walkRequestOrigin_Completed::Inst            0                       # Table walker requests started/completed, data/inst
system.cpu.itb.walker.walkRequestOrigin_Completed::total            0                       # Table walker requests started/completed, data/inst
system.cpu.itb.walker.walkRequestOrigin::total            0                       # Table walker requests started/completed, data/inst
system.cpu.itb.walker.walks                         0                       # Table walker walks requested
system.cpu.itb.write_accesses                       0                       # DTB write accesses
system.cpu.itb.write_hits                           0                       # DTB write hits
system.cpu.itb.write_misses                         0                       # DTB write misses
system.cpu.kern.inst.arm                            0                       # number of arm instructions executed
system.cpu.kern.inst.quiesce                      689                       # number of quiesce instructions executed
system.cpu.numCycles                         10558574                       # number of cpu cycles simulated
system.cpu.numFetchSuspends                       689                       # Number of times Execute suspended instruction fetching
system.cpu.numWorkItemsCompleted                    0                       # number of work items this cpu completed
system.cpu.numWorkItemsStarted                      0                       # number of work items this cpu started
system.cpu.op_class_0::No_OpClass                   0      0.00%      0.00% # Class of committed instruction
system.cpu.op_class_0::IntAlu                 2305203     67.41%     67.41% # Class of committed instruction
system.cpu.op_class_0::IntMult                   3514      0.10%     67.51% # Class of committed instruction
system.cpu.op_class_0::IntDiv                       0      0.00%     67.51% # Class of committed instruction
system.cpu.op_class_0::FloatAdd                     0      0.00%     67.51% # Class of committed instruction
system.cpu.op_class_0::FloatCmp                     0      0.00%     67.51% # Class of committed instruction
system.cpu.op_class_0::FloatCvt                     0      0.00%     67.51% # Class of committed instruction
system.cpu.op_class_0::FloatMult                    0      0.00%     67.51% # Class of committed instruction
system.cpu.op_class_0::FloatMultAcc                 0      0.00%     67.51% # Class of committed instruction
system.cpu.op_class_0::FloatDiv                     0      0.00%     67.51% # Class of committed instruction
system.cpu.op_class_0::FloatMisc                    0      0.00%     67.51% # Class of committed instruction
system.cpu.op_class_0::FloatSqrt                    0      0.00%     67.51% # Class of committed instruction
system.cpu.op_class_0::SimdAdd                      0      0.00%     67.51% # Class of committed instruction
system.cpu.op_class_0::SimdAddAcc                   0      0.00%     67.51% # Class of committed instruction
system.cpu.op_class_0::SimdAlu                      0      0.00%     67.51% # Class of committed instruction
system.cpu.op_class_0::SimdCmp                      0      0.00%     67.51% # Class of committed instruction
system.cpu.op_class_0::SimdCvt                      0      0.00%     67.51% # Class of committed instruction
system.cpu.op_class_0::SimdMisc                     0      0.00%     67.51% # Class of committed instruction
system.cpu.op_class_0::SimdMult                     0      0.00%     67.51% # Class of committed instruction
system.cpu.op_class_0::SimdMultAcc                  0      0.00%     67.51% # Class of committed instruction
system.cpu.op_class_0::SimdShift                    0      0.00%     67.51% # Class of committed instruction
system.cpu.op_class_0::SimdShiftAcc                 0      0.00%     67.51% # Class of committed instruction
system.cpu.op_class_0::SimdDiv                      0      0.00%     67.51% # Class of committed instruction
system.cpu.op_class_0::SimdSqrt                     0      0.00%     67.51% # Class of committed instruction
system.cpu.op_class_0::SimdFloatAdd                 0      0.00%     67.51% # Class of committed instruction
system.cpu.op_class_0::SimdFloatAlu                 0      0.00%     67.51% # Class of committed instruction
system.cpu.op_class_0::SimdFloatCmp                 0      0.00%     67.51% # Class of committed instruction
system.cpu.op_class_0::SimdFloatCvt                 0      0.00%     67.51% # Class of committed instruction
system.cpu.op_class_0::SimdFloatDiv                 0      0.00%     67.51% # Class of committed instruction
system.cpu.op_class_0::SimdFloatMisc                0      0.00%     67.51% # Class of committed instruction
system.cpu.op_class_0::SimdFloatMult                0      0.00%     67.51% # Class of committed instruction
system.cpu.op_class_0::SimdFloatMultAcc             0      0.00%     67.51% # Class of committed instruction
system.cpu.op_class_0::SimdFloatSqrt                0      0.00%     67.51% # Class of committed instruction
system.cpu.op_class_0::SimdReduceAdd                0      0.00%     67.51% # Class of committed instruction
system.cpu.op_class_0::SimdReduceAlu                0      0.00%     67.51% # Class of committed instruction
system.cpu.op_class_0::SimdReduceCmp                0      0.00%     67.51% # Class of committed instruction
system.cpu.op_class_0::SimdFloatReduceAdd            0      0.00%     67.51% # Class of committed instruction
system.cpu.op_class_0::SimdFloatReduceCmp            0      0.00%     67.51% # Class of committed instruction
system.cpu.op_class_0::SimdAes                      0      0.00%     67.51% # Class of committed instruction
system.cpu.op_class_0::SimdAesMix                   0      0.00%     67.51% # Class of committed instruction
system.cpu.op_class_0::SimdSha1Hash                 0      0.00%     67.51% # Class of committed instruction
system.cpu.op_class_0::SimdSha1Hash2                0      0.00%     67.51% # Class of committed instruction
system.cpu.op_class_0::SimdSha256Hash               0      0.00%     67.51% # Class of committed instruction
system.cpu.op_class_0::SimdSha256Hash2              0      0.00%     67.51% # Class of committed instruction
system.cpu.op_class_0::SimdShaSigma2                0      0.00%     67.51% # Class of committed instruction
system.cpu.op_class_0::SimdShaSigma3                0      0.00%     67.51% # Class of committed instruction
system.cpu.op_class_0::SimdPredAlu                  0      0.00%     67.51% # Class of committed instruction
system.cpu.op_class_0::MemRead                 172533      5.05%     72.56% # Class of committed instruction
system.cpu.op_class_0::MemWrite                938374     27.44%    100.00% # Class of committed instruction
system.cpu.op_class_0::FloatMemRead                 0      0.00%    100.00% # Class of committed instruction
system.cpu.op_class_0::FloatMemWrite                0      0.00%    100.00% # Class of committed instruction
system.cpu.op_class_0::IprAccess                    0      0.00%    100.00% # Class of committed instruction
system.cpu.op_class_0::InstPrefetch                 0      0.00%    100.00% # Class of committed instruction
system.cpu.op_class_0::total                  3419624                       # Class of committed instruction
system.cpu.quiesceCycles                     30944586                       # Total number of cycles that CPU has spent quiesced or waiting for an interrupt
system.cpu.tickCycles                         7248823                       # Number of cycles that the object actually ticked
system.membus.snoop_filter.hit_multi_requests            8                       # Number of requests hitting in the snoop filter with multiple (>1) holders of the requested data.
system.membus.snoop_filter.hit_multi_snoops            0                       # Number of snoops hitting in the snoop filter with multiple (>1) holders of the requested data.
system.membus.snoop_filter.hit_single_requests         1295                       # Number of requests hitting in the snoop filter with a single holder of the requested data.
system.membus.snoop_filter.hit_single_snoops            0                       # Number of snoops hitting in the snoop filter with a single holder of the requested data.
system.membus.snoop_filter.tot_requests        831775                       # Total number of requests made to the snoop filter.
system.membus.snoop_filter.tot_snoops               0                       # Total number of snoops made to the snoop filter.
system.bridge.pwrStateResidencyTicks::UNDEFINED  32846342500                       # Cumulative time (in ticks) in various power states
system.voltage_domain.voltage                       1                       # Voltage in Volts
system.iocache.pwrStateResidencyTicks::UNDEFINED  32846342500                       # Cumulative time (in ticks) in various power states
system.iocache.blocked_cycles::no_mshrs             0                       # number of cycles access was blocked
system.iocache.blocked_cycles::no_targets            0                       # number of cycles access was blocked
system.iocache.blocked::no_mshrs                    0                       # number of cycles access was blocked
system.iocache.blocked::no_targets                  0                       # number of cycles access was blocked
system.iocache.avg_blocked_cycles::no_mshrs          nan                       # average number of cycles each access was blocked
system.iocache.avg_blocked_cycles::no_targets          nan                       # average number of cycles each access was blocked
system.iocache.replacements                         0                       # number of replacements
system.iocache.tags.pwrStateResidencyTicks::UNDEFINED  32846342500                       # Cumulative time (in ticks) in various power states
system.iocache.tags.tagsinuse                       0                       # Cycle average of tags in use
system.iocache.tags.total_refs                      0                       # Total number of references to valid blocks.
system.iocache.tags.sampled_refs                    0                       # Sample count of references to valid blocks.
system.iocache.tags.avg_refs                      nan                       # Average number of references to valid blocks.
system.iocache.tags.warmup_cycle                    0                       # Cycle when the warmup percentage was hit.
system.iocache.tags.tag_accesses                    0                       # Number of tag accesses
system.iocache.tags.data_accesses                   0                       # Number of data accesses
system.membus.pwrStateResidencyTicks::UNDEFINED  32846342500                       # Cumulative time (in ticks) in various power states
system.membus.trans_dist::ReadReq              297269                       # Transaction distribution
system.membus.trans_dist::ReadResp             298433                       # Transaction distribution
system.membus.trans_dist::WriteReq             125015                       # Transaction distribution
system.membus.trans_dist::WriteResp            125015                       # Transaction distribution
system.membus.trans_dist::WritebackDirty          733                       # Transaction distribution
system.membus.trans_dist::WriteClean                1                       # Transaction distribution
system.membus.trans_dist::CleanEvict              542                       # Transaction distribution
system.membus.trans_dist::ReadExReq               283                       # Transaction distribution
system.membus.trans_dist::ReadExResp              283                       # Transaction distribution
system.membus.trans_dist::ReadCleanReq            320                       # Transaction distribution
system.membus.trans_dist::ReadSharedReq           844                       # Transaction distribution
system.membus.trans_dist::CleanInvalidReq       414524                       # Transaction distribution
system.membus.trans_dist::InvalidateReq        414524                       # Transaction distribution
system.membus.pkt_count_system.cpu.icache.mem_side::system.realview.bootmem.port          788                       # Packet count per connected master and slave (bytes)
system.membus.pkt_count_system.cpu.icache.mem_side::total          788                       # Packet count per connected master and slave (bytes)
system.membus.pkt_count_system.cpu.dcache.mem_side::system.realview.bootmem.port           61                       # Packet count per connected master and slave (bytes)
system.membus.pkt_count_system.cpu.dcache.mem_side::system.realview.gic.pio         3044                       # Packet count per connected master and slave (bytes)
system.membus.pkt_count_system.cpu.dcache.mem_side::system.mem_ctrls.port       832369                       # Packet count per connected master and slave (bytes)
system.membus.pkt_count_system.cpu.dcache.mem_side::system.acctest.mem2cls.slave        12476                       # Packet count per connected master and slave (bytes)
system.membus.pkt_count_system.cpu.dcache.mem_side::total       847950                       # Packet count per connected master and slave (bytes)
system.membus.pkt_count_system.acctest.coherency_bus.master[0]::system.mem_ctrls.port       829048                       # Packet count per connected master and slave (bytes)
system.membus.pkt_count_system.acctest.coherency_bus.master[0]::total       829048                       # Packet count per connected master and slave (bytes)
system.membus.pkt_count::total                1677786                       # Packet count per connected master and slave (bytes)
system.membus.pkt_size_system.cpu.icache.mem_side::system.realview.bootmem.port        20480                       # Cumulative packet size per connected master and slave (bytes)
system.membus.pkt_size_system.cpu.icache.mem_side::total        20480                       # Cumulative packet size per connected master and slave (bytes)
system.membus.pkt_size_system.cpu.dcache.mem_side::system.realview.bootmem.port         1664                       # Cumulative packet size per connected master and slave (bytes)
system.membus.pkt_size_system.cpu.dcache.mem_side::system.realview.gic.pio         6088                       # Cumulative packet size per connected master and slave (bytes)
system.membus.pkt_size_system.cpu.dcache.mem_side::system.mem_ctrls.port       117440                       # Cumulative packet size per connected master and slave (bytes)
system.membus.pkt_size_system.cpu.dcache.mem_side::system.acctest.mem2cls.slave        16783                       # Cumulative packet size per connected master and slave (bytes)
system.membus.pkt_size_system.cpu.dcache.mem_side::total       141975                       # Cumulative packet size per connected master and slave (bytes)
system.membus.pkt_size_system.acctest.coherency_bus.master[0]::system.mem_ctrls.port     26528792                       # Cumulative packet size per connected master and slave (bytes)
system.membus.pkt_size_system.acctest.coherency_bus.master[0]::total     26528792                       # Cumulative packet size per connected master and slave (bytes)
system.membus.pkt_size::total                26691247                       # Cumulative packet size per connected master and slave (bytes)
system.membus.snoops                                0                       # Total snoops (count)
system.membus.snoopTraffic                          0                       # Total snoop traffic (bytes)
system.membus.snoop_fanout::samples           1252973                       # Request fanout histogram
system.membus.snoop_fanout::mean             0.000022                       # Request fanout histogram
system.membus.snoop_fanout::stdev            0.004642                       # Request fanout histogram
system.membus.snoop_fanout::underflows              0      0.00%      0.00% # Request fanout histogram
system.membus.snoop_fanout::0                 1252946    100.00%    100.00% # Request fanout histogram
system.membus.snoop_fanout::1                      27      0.00%    100.00% # Request fanout histogram
system.membus.snoop_fanout::2                       0      0.00%    100.00% # Request fanout histogram
system.membus.snoop_fanout::3                       0      0.00%    100.00% # Request fanout histogram
system.membus.snoop_fanout::4                       0      0.00%    100.00% # Request fanout histogram
system.membus.snoop_fanout::overflows               0      0.00%    100.00% # Request fanout histogram
system.membus.snoop_fanout::min_value               0                       # Request fanout histogram
system.membus.snoop_fanout::max_value               1                       # Request fanout histogram
system.membus.snoop_fanout::total             1252973                       # Request fanout histogram
system.membus.reqLayer6.occupancy          2029166287                       # Layer occupancy (ticks)
system.membus.reqLayer6.utilization               7.8                       # Layer utilization (%)
system.membus.reqLayer7.occupancy            15791500                       # Layer occupancy (ticks)
system.membus.reqLayer7.utilization               0.1                       # Layer utilization (%)
system.membus.reqLayer1.occupancy              761812                       # Layer occupancy (ticks)
system.membus.reqLayer1.utilization               0.0                       # Layer utilization (%)
system.membus.reqLayer2.occupancy             2962625                       # Layer occupancy (ticks)
system.membus.reqLayer2.utilization               0.0                       # Layer utilization (%)
system.membus.badaddr_responder.pwrStateResidencyTicks::UNDEFINED  32846342500                       # Cumulative time (in ticks) in various power states
system.membus.respLayer4.occupancy           14946125                       # Layer occupancy (ticks)
system.membus.respLayer4.utilization              0.1                       # Layer utilization (%)
system.membus.respLayer7.occupancy         1752823099                       # Layer occupancy (ticks)
system.membus.respLayer7.utilization              6.8                       # Layer utilization (%)
system.membus.respLayer3.occupancy            1609000                       # Layer occupancy (ticks)
system.membus.respLayer3.utilization              0.0                       # Layer utilization (%)
system.acctest.harris_non_max0_spm.pwrStateResidencyTicks::UNDEFINED  32846342500                       # Cumulative time (in ticks) in various power states
system.acctest.harris_non_max0_spm.bytes_read::.acctest.harris_non_max0.system.acctest.harris_non_max0        65536                       # Number of bytes read from this memory
system.acctest.harris_non_max0_spm.bytes_read::.acctest.harris_non_max0_dma        16384                       # Number of bytes read from this memory
system.acctest.harris_non_max0_spm.bytes_read::total        81920                       # Number of bytes read from this memory
system.acctest.harris_non_max0_spm.bytes_written::.acctest.harris_non_max0.system.acctest.harris_non_max0        16384                       # Number of bytes written to this memory
system.acctest.harris_non_max0_spm.bytes_written::.acctest.harris_non_max0_dma        65536                       # Number of bytes written to this memory
system.acctest.harris_non_max0_spm.bytes_written::total        81920                       # Number of bytes written to this memory
system.acctest.harris_non_max0_spm.num_reads::.acctest.harris_non_max0.system.acctest.harris_non_max0        16384                       # Number of read requests responded to by this memory
system.acctest.harris_non_max0_spm.num_reads::.acctest.harris_non_max0_dma          512                       # Number of read requests responded to by this memory
system.acctest.harris_non_max0_spm.num_reads::total        16896                       # Number of read requests responded to by this memory
system.acctest.harris_non_max0_spm.num_writes::.acctest.harris_non_max0.system.acctest.harris_non_max0        16384                       # Number of write requests responded to by this memory
system.acctest.harris_non_max0_spm.num_writes::.acctest.harris_non_max0_dma         2048                       # Number of write requests responded to by this memory
system.acctest.harris_non_max0_spm.num_writes::total        18432                       # Number of write requests responded to by this memory
system.acctest.harris_non_max0_spm.bw_read::.acctest.harris_non_max0.system.acctest.harris_non_max0      2526497                       # Total read bandwidth from this memory (bytes/s)
system.acctest.harris_non_max0_spm.bw_read::.acctest.harris_non_max0_dma       631624                       # Total read bandwidth from this memory (bytes/s)
system.acctest.harris_non_max0_spm.bw_read::total      3158121                       # Total read bandwidth from this memory (bytes/s)
system.acctest.harris_non_max0_spm.bw_write::.acctest.harris_non_max0.system.acctest.harris_non_max0       631624                       # Write bandwidth from this memory (bytes/s)
system.acctest.harris_non_max0_spm.bw_write::.acctest.harris_non_max0_dma      2526497                       # Write bandwidth from this memory (bytes/s)
system.acctest.harris_non_max0_spm.bw_write::total      3158121                       # Write bandwidth from this memory (bytes/s)
system.acctest.harris_non_max0_spm.bw_total::.acctest.harris_non_max0.system.acctest.harris_non_max0      3158121                       # Total bandwidth to/from this memory (bytes/s)
system.acctest.harris_non_max0_spm.bw_total::.acctest.harris_non_max0_dma      3158121                       # Total bandwidth to/from this memory (bytes/s)
system.acctest.harris_non_max0_spm.bw_total::total      6316242                       # Total bandwidth to/from this memory (bytes/s)
system.acctest.elem_matrix2_spm.pwrStateResidencyTicks::UNDEFINED  32846342500                       # Cumulative time (in ticks) in various power states
system.acctest.elem_matrix3_spm.pwrStateResidencyTicks::UNDEFINED  32846342500                       # Cumulative time (in ticks) in various power states
system.acctest.local_bus.pwrStateResidencyTicks::UNDEFINED  32846342500                       # Cumulative time (in ticks) in various power states
system.acctest.local_bus.trans_dist::ReadReq       269824                       # Transaction distribution
system.acctest.local_bus.trans_dist::ReadResp       269824                       # Transaction distribution
system.acctest.local_bus.trans_dist::WriteReq       633042                       # Transaction distribution
system.acctest.local_bus.trans_dist::WriteResp       633042                       # Transaction distribution
system.acctest.local_bus.pkt_count_system.acctest.mem2cls.master::system.acctest.canny_non_max0.pio           12                       # Packet count per connected master and slave (bytes)
system.acctest.local_bus.pkt_count_system.acctest.mem2cls.master::system.acctest.canny_non_max0_dma.pio           28                       # Packet count per connected master and slave (bytes)
system.acctest.local_bus.pkt_count_system.acctest.mem2cls.master::system.acctest.convolution0.pio          360                       # Packet count per connected master and slave (bytes)
system.acctest.local_bus.pkt_count_system.acctest.mem2cls.master::system.acctest.convolution0_dma.pio          644                       # Packet count per connected master and slave (bytes)
system.acctest.local_bus.pkt_count_system.acctest.mem2cls.master::system.acctest.edge_tracking0.pio           16                       # Packet count per connected master and slave (bytes)
system.acctest.local_bus.pkt_count_system.acctest.mem2cls.master::system.acctest.edge_tracking0_dma.pio           28                       # Packet count per connected master and slave (bytes)
system.acctest.local_bus.pkt_count_system.acctest.mem2cls.master::system.acctest.elem_matrix0.pio         5780                       # Packet count per connected master and slave (bytes)
system.acctest.local_bus.pkt_count_system.acctest.mem2cls.master::system.acctest.elem_matrix0_dma.pio         5362                       # Packet count per connected master and slave (bytes)
system.acctest.local_bus.pkt_count_system.acctest.mem2cls.master::system.acctest.grayscale0.pio           30                       # Packet count per connected master and slave (bytes)
system.acctest.local_bus.pkt_count_system.acctest.mem2cls.master::system.acctest.grayscale0_dma.pio           84                       # Packet count per connected master and slave (bytes)
system.acctest.local_bus.pkt_count_system.acctest.mem2cls.master::system.acctest.harris_non_max0.pio           12                       # Packet count per connected master and slave (bytes)
system.acctest.local_bus.pkt_count_system.acctest.mem2cls.master::system.acctest.harris_non_max0_dma.pio           28                       # Packet count per connected master and slave (bytes)
system.acctest.local_bus.pkt_count_system.acctest.mem2cls.master::system.acctest.isp0.pio           36                       # Packet count per connected master and slave (bytes)
system.acctest.local_bus.pkt_count_system.acctest.mem2cls.master::system.acctest.isp0_dma.pio           56                       # Packet count per connected master and slave (bytes)
system.acctest.local_bus.pkt_count_system.acctest.mem2cls.master::total        12476                       # Packet count per connected master and slave (bytes)
system.acctest.local_bus.pkt_count_system.acctest.canny_non_max0_dma.dma::system.acctest.canny_non_max0_spm.port         8192                       # Packet count per connected master and slave (bytes)
system.acctest.local_bus.pkt_count_system.acctest.canny_non_max0_dma.dma::system.acctest.elem_matrix0_spm.port         4096                       # Packet count per connected master and slave (bytes)
system.acctest.local_bus.pkt_count_system.acctest.canny_non_max0_dma.dma::total        12288                       # Packet count per connected master and slave (bytes)
system.acctest.local_bus.pkt_count_system.acctest.convolution0_dma.dma::system.acctest.convolution0_spm.port       114816                       # Packet count per connected master and slave (bytes)
system.acctest.local_bus.pkt_count_system.acctest.convolution0_dma.dma::system.acctest.elem_matrix0_spm.port        12288                       # Packet count per connected master and slave (bytes)
system.acctest.local_bus.pkt_count_system.acctest.convolution0_dma.dma::system.acctest.grayscale0_spm.port         4096                       # Packet count per connected master and slave (bytes)
system.acctest.local_bus.pkt_count_system.acctest.convolution0_dma.dma::total       131200                       # Packet count per connected master and slave (bytes)
system.acctest.local_bus.pkt_count_system.acctest.edge_tracking0_dma.dma::system.acctest.canny_non_max0_spm.port         4096                       # Packet count per connected master and slave (bytes)
system.acctest.local_bus.pkt_count_system.acctest.edge_tracking0_dma.dma::system.acctest.edge_tracking0_spm.port         5120                       # Packet count per connected master and slave (bytes)
system.acctest.local_bus.pkt_count_system.acctest.edge_tracking0_dma.dma::total         9216                       # Packet count per connected master and slave (bytes)
system.acctest.local_bus.pkt_count_system.acctest.elem_matrix0_dma.dma::system.acctest.convolution0_spm.port        32768                       # Packet count per connected master and slave (bytes)
system.acctest.local_bus.pkt_count_system.acctest.elem_matrix0_dma.dma::system.acctest.elem_matrix0_spm.port      1564674                       # Packet count per connected master and slave (bytes)
system.acctest.local_bus.pkt_count_system.acctest.elem_matrix0_dma.dma::total      1597442                       # Packet count per connected master and slave (bytes)
system.acctest.local_bus.pkt_count_system.acctest.grayscale0_dma.dma::system.acctest.grayscale0_spm.port        21504                       # Packet count per connected master and slave (bytes)
system.acctest.local_bus.pkt_count_system.acctest.grayscale0_dma.dma::system.acctest.isp0_spm.port         6144                       # Packet count per connected master and slave (bytes)
system.acctest.local_bus.pkt_count_system.acctest.grayscale0_dma.dma::total        27648                       # Packet count per connected master and slave (bytes)
system.acctest.local_bus.pkt_count_system.acctest.harris_non_max0_dma.dma::system.acctest.elem_matrix0_spm.port         4096                       # Packet count per connected master and slave (bytes)
system.acctest.local_bus.pkt_count_system.acctest.harris_non_max0_dma.dma::system.acctest.harris_non_max0_spm.port         5120                       # Packet count per connected master and slave (bytes)
system.acctest.local_bus.pkt_count_system.acctest.harris_non_max0_dma.dma::total         9216                       # Packet count per connected master and slave (bytes)
system.acctest.local_bus.pkt_count_system.acctest.isp0_dma.dma::system.acctest.isp0_spm.port         6246                       # Packet count per connected master and slave (bytes)
system.acctest.local_bus.pkt_count_system.acctest.isp0_dma.dma::total         6246                       # Packet count per connected master and slave (bytes)
system.acctest.local_bus.pkt_count::total      1805732                       # Packet count per connected master and slave (bytes)
system.acctest.local_bus.pkt_size_system.acctest.mem2cls.master::system.acctest.canny_non_max0.pio           15                       # Cumulative packet size per connected master and slave (bytes)
system.acctest.local_bus.pkt_size_system.acctest.mem2cls.master::system.acctest.canny_non_max0_dma.pio           44                       # Cumulative packet size per connected master and slave (bytes)
system.acctest.local_bus.pkt_size_system.acctest.mem2cls.master::system.acctest.convolution0.pio          504                       # Cumulative packet size per connected master and slave (bytes)
system.acctest.local_bus.pkt_size_system.acctest.mem2cls.master::system.acctest.convolution0_dma.pio         1012                       # Cumulative packet size per connected master and slave (bytes)
system.acctest.local_bus.pkt_size_system.acctest.mem2cls.master::system.acctest.edge_tracking0.pio           23                       # Cumulative packet size per connected master and slave (bytes)
system.acctest.local_bus.pkt_size_system.acctest.mem2cls.master::system.acctest.edge_tracking0_dma.pio           44                       # Cumulative packet size per connected master and slave (bytes)
system.acctest.local_bus.pkt_size_system.acctest.mem2cls.master::system.acctest.elem_matrix0.pio         6358                       # Cumulative packet size per connected master and slave (bytes)
system.acctest.local_bus.pkt_size_system.acctest.mem2cls.master::system.acctest.elem_matrix0_dma.pio         8426                       # Cumulative packet size per connected master and slave (bytes)
system.acctest.local_bus.pkt_size_system.acctest.mem2cls.master::system.acctest.grayscale0.pio           33                       # Cumulative packet size per connected master and slave (bytes)
system.acctest.local_bus.pkt_size_system.acctest.mem2cls.master::system.acctest.grayscale0_dma.pio          132                       # Cumulative packet size per connected master and slave (bytes)
system.acctest.local_bus.pkt_size_system.acctest.mem2cls.master::system.acctest.harris_non_max0.pio           15                       # Cumulative packet size per connected master and slave (bytes)
system.acctest.local_bus.pkt_size_system.acctest.mem2cls.master::system.acctest.harris_non_max0_dma.pio           44                       # Cumulative packet size per connected master and slave (bytes)
system.acctest.local_bus.pkt_size_system.acctest.mem2cls.master::system.acctest.isp0.pio           45                       # Cumulative packet size per connected master and slave (bytes)
system.acctest.local_bus.pkt_size_system.acctest.mem2cls.master::system.acctest.isp0_dma.pio           88                       # Cumulative packet size per connected master and slave (bytes)
system.acctest.local_bus.pkt_size_system.acctest.mem2cls.master::total        16783                       # Cumulative packet size per connected master and slave (bytes)
system.acctest.local_bus.pkt_size_system.acctest.canny_non_max0_dma.dma::system.acctest.canny_non_max0_spm.port       131072                       # Cumulative packet size per connected master and slave (bytes)
system.acctest.local_bus.pkt_size_system.acctest.canny_non_max0_dma.dma::system.acctest.elem_matrix0_spm.port        65536                       # Cumulative packet size per connected master and slave (bytes)
system.acctest.local_bus.pkt_size_system.acctest.canny_non_max0_dma.dma::total       196608                       # Cumulative packet size per connected master and slave (bytes)
system.acctest.local_bus.pkt_size_system.acctest.convolution0_dma.dma::system.acctest.convolution0_spm.port      1836552                       # Cumulative packet size per connected master and slave (bytes)
system.acctest.local_bus.pkt_size_system.acctest.convolution0_dma.dma::system.acctest.elem_matrix0_spm.port       196608                       # Cumulative packet size per connected master and slave (bytes)
system.acctest.local_bus.pkt_size_system.acctest.convolution0_dma.dma::system.acctest.grayscale0_spm.port        65536                       # Cumulative packet size per connected master and slave (bytes)
system.acctest.local_bus.pkt_size_system.acctest.convolution0_dma.dma::total      2098696                       # Cumulative packet size per connected master and slave (bytes)
system.acctest.local_bus.pkt_size_system.acctest.edge_tracking0_dma.dma::system.acctest.canny_non_max0_spm.port        65536                       # Cumulative packet size per connected master and slave (bytes)
system.acctest.local_bus.pkt_size_system.acctest.edge_tracking0_dma.dma::system.acctest.edge_tracking0_spm.port        81920                       # Cumulative packet size per connected master and slave (bytes)
system.acctest.local_bus.pkt_size_system.acctest.edge_tracking0_dma.dma::total       147456                       # Cumulative packet size per connected master and slave (bytes)
system.acctest.local_bus.pkt_size_system.acctest.elem_matrix0_dma.dma::system.acctest.convolution0_spm.port       524288                       # Cumulative packet size per connected master and slave (bytes)
system.acctest.local_bus.pkt_size_system.acctest.elem_matrix0_dma.dma::system.acctest.elem_matrix0_spm.port     25034756                       # Cumulative packet size per connected master and slave (bytes)
system.acctest.local_bus.pkt_size_system.acctest.elem_matrix0_dma.dma::total     25559044                       # Cumulative packet size per connected master and slave (bytes)
system.acctest.local_bus.pkt_size_system.acctest.grayscale0_dma.dma::system.acctest.grayscale0_spm.port       344064                       # Cumulative packet size per connected master and slave (bytes)
system.acctest.local_bus.pkt_size_system.acctest.grayscale0_dma.dma::system.acctest.isp0_spm.port        98304                       # Cumulative packet size per connected master and slave (bytes)
system.acctest.local_bus.pkt_size_system.acctest.grayscale0_dma.dma::total       442368                       # Cumulative packet size per connected master and slave (bytes)
system.acctest.local_bus.pkt_size_system.acctest.harris_non_max0_dma.dma::system.acctest.elem_matrix0_spm.port        65536                       # Cumulative packet size per connected master and slave (bytes)
system.acctest.local_bus.pkt_size_system.acctest.harris_non_max0_dma.dma::system.acctest.harris_non_max0_spm.port        81920                       # Cumulative packet size per connected master and slave (bytes)
system.acctest.local_bus.pkt_size_system.acctest.harris_non_max0_dma.dma::total       147456                       # Cumulative packet size per connected master and slave (bytes)
system.acctest.local_bus.pkt_size_system.acctest.isp0_dma.dma::system.acctest.isp0_spm.port        99852                       # Cumulative packet size per connected master and slave (bytes)
system.acctest.local_bus.pkt_size_system.acctest.isp0_dma.dma::total        99852                       # Cumulative packet size per connected master and slave (bytes)
system.acctest.local_bus.pkt_size::total     28708263                       # Cumulative packet size per connected master and slave (bytes)
system.acctest.local_bus.occupancy         3054329500                       # Network occupancy (ticks)
system.acctest.local_bus.utilization             11.8                       # Network utilization (%)
system.acctest.local_bus.reqLayer0.occupancy   2518050445                       # Layer occupancy (ticks)
system.acctest.local_bus.reqLayer0.utilization          9.7                       # Layer utilization (%)
system.acctest.local_bus.respLayer0.occupancy   1444818000                       # Layer occupancy (ticks)
system.acctest.local_bus.respLayer0.utilization          5.6                       # Layer utilization (%)
system.acctest.isp0.pwrStateResidencyTicks::UNDEFINED  32846342500                       # Cumulative time (in ticks) in various power states
system.acctest.edge_tracking0.pwrStateResidencyTicks::UNDEFINED  32846342500                       # Cumulative time (in ticks) in various power states
system.acctest.grayscale0_spm.pwrStateResidencyTicks::UNDEFINED  32846342500                       # Cumulative time (in ticks) in various power states
system.acctest.grayscale0_spm.bytes_read::.acctest.convolution0_dma        65536                       # Number of bytes read from this memory
system.acctest.grayscale0_spm.bytes_read::.acctest.grayscale0.system.acctest.grayscale0       147456                       # Number of bytes read from this memory
system.acctest.grayscale0_spm.bytes_read::.acctest.grayscale0_dma       196608                       # Number of bytes read from this memory
system.acctest.grayscale0_spm.bytes_read::total       409600                       # Number of bytes read from this memory
system.acctest.grayscale0_spm.bytes_written::.acctest.grayscale0.system.acctest.grayscale0       196608                       # Number of bytes written to this memory
system.acctest.grayscale0_spm.bytes_written::.acctest.grayscale0_dma       147456                       # Number of bytes written to this memory
system.acctest.grayscale0_spm.bytes_written::total       344064                       # Number of bytes written to this memory
system.acctest.grayscale0_spm.num_reads::.acctest.convolution0_dma         2048                       # Number of read requests responded to by this memory
system.acctest.grayscale0_spm.num_reads::.acctest.grayscale0.system.acctest.grayscale0       147456                       # Number of read requests responded to by this memory
system.acctest.grayscale0_spm.num_reads::.acctest.grayscale0_dma         6144                       # Number of read requests responded to by this memory
system.acctest.grayscale0_spm.num_reads::total       155648                       # Number of read requests responded to by this memory
system.acctest.grayscale0_spm.num_writes::.acctest.grayscale0.system.acctest.grayscale0        49152                       # Number of write requests responded to by this memory
system.acctest.grayscale0_spm.num_writes::.acctest.grayscale0_dma         4608                       # Number of write requests responded to by this memory
system.acctest.grayscale0_spm.num_writes::total        53760                       # Number of write requests responded to by this memory
system.acctest.grayscale0_spm.bw_read::.acctest.convolution0_dma      2526497                       # Total read bandwidth from this memory (bytes/s)
system.acctest.grayscale0_spm.bw_read::.acctest.grayscale0.system.acctest.grayscale0      5684618                       # Total read bandwidth from this memory (bytes/s)
system.acctest.grayscale0_spm.bw_read::.acctest.grayscale0_dma      7579490                       # Total read bandwidth from this memory (bytes/s)
system.acctest.grayscale0_spm.bw_read::total     15790605                       # Total read bandwidth from this memory (bytes/s)
system.acctest.grayscale0_spm.bw_write::.acctest.grayscale0.system.acctest.grayscale0      7579490                       # Write bandwidth from this memory (bytes/s)
system.acctest.grayscale0_spm.bw_write::.acctest.grayscale0_dma      5684618                       # Write bandwidth from this memory (bytes/s)
system.acctest.grayscale0_spm.bw_write::total     13264108                       # Write bandwidth from this memory (bytes/s)
system.acctest.grayscale0_spm.bw_total::.acctest.convolution0_dma      2526497                       # Total bandwidth to/from this memory (bytes/s)
system.acctest.grayscale0_spm.bw_total::.acctest.grayscale0.system.acctest.grayscale0     13264108                       # Total bandwidth to/from this memory (bytes/s)
system.acctest.grayscale0_spm.bw_total::.acctest.grayscale0_dma     13264108                       # Total bandwidth to/from this memory (bytes/s)
system.acctest.grayscale0_spm.bw_total::total     29054713                       # Total bandwidth to/from this memory (bytes/s)
system.acctest.elem_matrix1_dma.pwrStateResidencyTicks::UNDEFINED  32846342500                       # Cumulative time (in ticks) in various power states
system.acctest.mem2cls.pwrStateResidencyTicks::UNDEFINED  32846342500                       # Cumulative time (in ticks) in various power states
system.acctest.isp0_dma.pwrStateResidencyTicks::UNDEFINED  32846342500                       # Cumulative time (in ticks) in various power states
system.acctest.grayscale0_dma.pwrStateResidencyTicks::UNDEFINED  32846342500                       # Cumulative time (in ticks) in various power states
system.acctest.convolution0.pwrStateResidencyTicks::UNDEFINED  32846342500                       # Cumulative time (in ticks) in various power states
system.acctest.convolution1.pwrStateResidencyTicks::UNDEFINED  32846342500                       # Cumulative time (in ticks) in various power states
system.acctest.isp0_spm.pwrStateResidencyTicks::UNDEFINED  32846342500                       # Cumulative time (in ticks) in various power states
system.acctest.isp0_spm.bytes_read::.acctest.grayscale0_dma        98304                       # Number of bytes read from this memory
system.acctest.isp0_spm.bytes_read::.acctest.isp0.system.acctest.isp0       344064                       # Number of bytes read from this memory
system.acctest.isp0_spm.bytes_read::.acctest.isp0_dma        49152                       # Number of bytes read from this memory
system.acctest.isp0_spm.bytes_read::total       491520                       # Number of bytes read from this memory
system.acctest.isp0_spm.bytes_written::.acctest.isp0.system.acctest.isp0       147456                       # Number of bytes written to this memory
system.acctest.isp0_spm.bytes_written::.acctest.isp0_dma        50700                       # Number of bytes written to this memory
system.acctest.isp0_spm.bytes_written::total       198156                       # Number of bytes written to this memory
system.acctest.isp0_spm.num_reads::.acctest.grayscale0_dma         3072                       # Number of read requests responded to by this memory
system.acctest.isp0_spm.num_reads::.acctest.isp0.system.acctest.isp0       344064                       # Number of read requests responded to by this memory
system.acctest.isp0_spm.num_reads::.acctest.isp0_dma         1536                       # Number of read requests responded to by this memory
system.acctest.isp0_spm.num_reads::total       348672                       # Number of read requests responded to by this memory
system.acctest.isp0_spm.num_writes::.acctest.isp0.system.acctest.isp0       147456                       # Number of write requests responded to by this memory
system.acctest.isp0_spm.num_writes::.acctest.isp0_dma         1587                       # Number of write requests responded to by this memory
system.acctest.isp0_spm.num_writes::total       149043                       # Number of write requests responded to by this memory
system.acctest.isp0_spm.bw_read::.acctest.grayscale0_dma      3789745                       # Total read bandwidth from this memory (bytes/s)
system.acctest.isp0_spm.bw_read::.acctest.isp0.system.acctest.isp0     13264108                       # Total read bandwidth from this memory (bytes/s)
system.acctest.isp0_spm.bw_read::.acctest.isp0_dma      1894873                       # Total read bandwidth from this memory (bytes/s)
system.acctest.isp0_spm.bw_read::total       18948726                       # Total read bandwidth from this memory (bytes/s)
system.acctest.isp0_spm.bw_write::.acctest.isp0.system.acctest.isp0      5684618                       # Write bandwidth from this memory (bytes/s)
system.acctest.isp0_spm.bw_write::.acctest.isp0_dma      1954550                       # Write bandwidth from this memory (bytes/s)
system.acctest.isp0_spm.bw_write::total       7639168                       # Write bandwidth from this memory (bytes/s)
system.acctest.isp0_spm.bw_total::.acctest.grayscale0_dma      3789745                       # Total bandwidth to/from this memory (bytes/s)
system.acctest.isp0_spm.bw_total::.acctest.isp0.system.acctest.isp0     18948726                       # Total bandwidth to/from this memory (bytes/s)
system.acctest.isp0_spm.bw_total::.acctest.isp0_dma      3849423                       # Total bandwidth to/from this memory (bytes/s)
system.acctest.isp0_spm.bw_total::total      26587894                       # Total bandwidth to/from this memory (bytes/s)
system.acctest.coherency_bus.pwrStateResidencyTicks::UNDEFINED  32846342500                       # Cumulative time (in ticks) in various power states
system.acctest.coherency_bus.trans_dist::ReadReq       296508                       # Transaction distribution
system.acctest.coherency_bus.trans_dist::ReadResp       296508                       # Transaction distribution
system.acctest.coherency_bus.trans_dist::WriteReq       118016                       # Transaction distribution
system.acctest.coherency_bus.trans_dist::WriteResp       118016                       # Transaction distribution
system.acctest.coherency_bus.pkt_count_system.acctest.canny_non_max0_dma.dma::system.membus.slave[7]         2048                       # Packet count per connected master and slave (bytes)
system.acctest.coherency_bus.pkt_count_system.acctest.convolution0_dma.dma::system.membus.slave[7]        49216                       # Packet count per connected master and slave (bytes)
system.acctest.coherency_bus.pkt_count_system.acctest.edge_tracking0_dma.dma::system.membus.slave[7]          512                       # Packet count per connected master and slave (bytes)
system.acctest.coherency_bus.pkt_count_system.acctest.elem_matrix0_dma.dma::system.membus.slave[7]       765954                       # Packet count per connected master and slave (bytes)
system.acctest.coherency_bus.pkt_count_system.acctest.grayscale0_dma.dma::system.membus.slave[7]         7680                       # Packet count per connected master and slave (bytes)
system.acctest.coherency_bus.pkt_count_system.acctest.harris_non_max0_dma.dma::system.membus.slave[7]          512                       # Packet count per connected master and slave (bytes)
system.acctest.coherency_bus.pkt_count_system.acctest.isp0_dma.dma::system.membus.slave[7]         3126                       # Packet count per connected master and slave (bytes)
system.acctest.coherency_bus.pkt_count::total       829048                       # Packet count per connected master and slave (bytes)
system.acctest.coherency_bus.pkt_size_system.acctest.canny_non_max0_dma.dma::system.membus.slave[7]        65536                       # Cumulative packet size per connected master and slave (bytes)
system.acctest.coherency_bus.pkt_size_system.acctest.convolution0_dma.dma::system.membus.slave[7]      1574408                       # Cumulative packet size per connected master and slave (bytes)
system.acctest.coherency_bus.pkt_size_system.acctest.edge_tracking0_dma.dma::system.membus.slave[7]        16384                       # Cumulative packet size per connected master and slave (bytes)
system.acctest.coherency_bus.pkt_size_system.acctest.elem_matrix0_dma.dma::system.membus.slave[7]     24510468                       # Cumulative packet size per connected master and slave (bytes)
system.acctest.coherency_bus.pkt_size_system.acctest.grayscale0_dma.dma::system.membus.slave[7]       245760                       # Cumulative packet size per connected master and slave (bytes)
system.acctest.coherency_bus.pkt_size_system.acctest.harris_non_max0_dma.dma::system.membus.slave[7]        16384                       # Cumulative packet size per connected master and slave (bytes)
system.acctest.coherency_bus.pkt_size_system.acctest.isp0_dma.dma::system.membus.slave[7]        99852                       # Cumulative packet size per connected master and slave (bytes)
system.acctest.coherency_bus.pkt_size::total     26528792                       # Cumulative packet size per connected master and slave (bytes)
system.acctest.coherency_bus.snoops                 0                       # Total snoops (count)
system.acctest.coherency_bus.snoopTraffic            0                       # Total snoop traffic (bytes)
system.acctest.coherency_bus.snoop_fanout::samples       501315                       # Request fanout histogram
system.acctest.coherency_bus.snoop_fanout::mean            0                       # Request fanout histogram
system.acctest.coherency_bus.snoop_fanout::stdev            0                       # Request fanout histogram
system.acctest.coherency_bus.snoop_fanout::underflows            0      0.00%      0.00% # Request fanout histogram
system.acctest.coherency_bus.snoop_fanout::0       501315    100.00%    100.00% # Request fanout histogram
system.acctest.coherency_bus.snoop_fanout::overflows            0      0.00%    100.00% # Request fanout histogram
system.acctest.coherency_bus.snoop_fanout::min_value            0                       # Request fanout histogram
system.acctest.coherency_bus.snoop_fanout::max_value            0                       # Request fanout histogram
system.acctest.coherency_bus.snoop_fanout::total       501315                       # Request fanout histogram
system.acctest.coherency_bus.reqLayer0.occupancy   1078253625                       # Layer occupancy (ticks)
system.acctest.coherency_bus.reqLayer0.utilization          4.2                       # Layer utilization (%)
system.acctest.coherency_bus.respLayer0.occupancy   1600526000                       # Layer occupancy (ticks)
system.acctest.coherency_bus.respLayer0.utilization          6.2                       # Layer utilization (%)
system.acctest.convolution0_spm.pwrStateResidencyTicks::UNDEFINED  32846342500                       # Cumulative time (in ticks) in various power states
system.acctest.convolution0_spm.bytes_read::.acctest.convolution0.system.acctest.convolution0     49688640                       # Number of bytes read from this memory
system.acctest.convolution0_spm.bytes_read::.acctest.convolution0_dma       720896                       # Number of bytes read from this memory
system.acctest.convolution0_spm.bytes_read::.acctest.elem_matrix0_dma       524288                       # Number of bytes read from this memory
system.acctest.convolution0_spm.bytes_read::total     50933824                       # Number of bytes read from this memory
system.acctest.convolution0_spm.bytes_written::.acctest.convolution0.system.acctest.convolution0      1179648                       # Number of bytes written to this memory
system.acctest.convolution0_spm.bytes_written::.acctest.convolution0_dma      1115656                       # Number of bytes written to this memory
system.acctest.convolution0_spm.bytes_written::total      2295304                       # Number of bytes written to this memory
system.acctest.convolution0_spm.num_reads::.acctest.convolution0.system.acctest.convolution0     12422160                       # Number of read requests responded to by this memory
system.acctest.convolution0_spm.num_reads::.acctest.convolution0_dma        22528                       # Number of read requests responded to by this memory
system.acctest.convolution0_spm.num_reads::.acctest.elem_matrix0_dma        16384                       # Number of read requests responded to by this memory
system.acctest.convolution0_spm.num_reads::total     12461072                       # Number of read requests responded to by this memory
system.acctest.convolution0_spm.num_writes::.acctest.convolution0.system.acctest.convolution0       294912                       # Number of write requests responded to by this memory
system.acctest.convolution0_spm.num_writes::.acctest.convolution0_dma        34880                       # Number of write requests responded to by this memory
system.acctest.convolution0_spm.num_writes::total       329792                       # Number of write requests responded to by this memory
system.acctest.convolution0_spm.bw_read::.acctest.convolution0.system.acctest.convolution0   1915560743                       # Total read bandwidth from this memory (bytes/s)
system.acctest.convolution0_spm.bw_read::.acctest.convolution0_dma     27791465                       # Total read bandwidth from this memory (bytes/s)
system.acctest.convolution0_spm.bw_read::.acctest.elem_matrix0_dma     20211974                       # Total read bandwidth from this memory (bytes/s)
system.acctest.convolution0_spm.bw_read::total   1963564182                       # Total read bandwidth from this memory (bytes/s)
system.acctest.convolution0_spm.bw_write::.acctest.convolution0.system.acctest.convolution0     45476942                       # Write bandwidth from this memory (bytes/s)
system.acctest.convolution0_spm.bw_write::.acctest.convolution0_dma     43009968                       # Write bandwidth from this memory (bytes/s)
system.acctest.convolution0_spm.bw_write::total     88486910                       # Write bandwidth from this memory (bytes/s)
system.acctest.convolution0_spm.bw_total::.acctest.convolution0.system.acctest.convolution0   1961037685                       # Total bandwidth to/from this memory (bytes/s)
system.acctest.convolution0_spm.bw_total::.acctest.convolution0_dma     70801433                       # Total bandwidth to/from this memory (bytes/s)
system.acctest.convolution0_spm.bw_total::.acctest.elem_matrix0_dma     20211974                       # Total bandwidth to/from this memory (bytes/s)
system.acctest.convolution0_spm.bw_total::total   2052051092                       # Total bandwidth to/from this memory (bytes/s)
system.acctest.elem_matrix0_dma.pwrStateResidencyTicks::UNDEFINED  32846342500                       # Cumulative time (in ticks) in various power states
system.acctest.grayscale0.pwrStateResidencyTicks::UNDEFINED  32846342500                       # Cumulative time (in ticks) in various power states
system.acctest.canny_non_max0.pwrStateResidencyTicks::UNDEFINED  32846342500                       # Cumulative time (in ticks) in various power states
system.acctest.elem_matrix0_spm.pwrStateResidencyTicks::UNDEFINED  32846342500                       # Cumulative time (in ticks) in various power states
system.acctest.elem_matrix0_spm.bytes_read::.acctest.canny_non_max0_dma        65536                       # Number of bytes read from this memory
system.acctest.elem_matrix0_spm.bytes_read::.acctest.convolution0_dma       196608                       # Number of bytes read from this memory
system.acctest.elem_matrix0_spm.bytes_read::.acctest.elem_matrix0.system.acctest.elem_matrix0     33161220                       # Number of bytes read from this memory
system.acctest.elem_matrix0_spm.bytes_read::.acctest.elem_matrix0_dma      6553600                       # Number of bytes read from this memory
system.acctest.elem_matrix0_spm.bytes_read::.acctest.harris_non_max0_dma        65536                       # Number of bytes read from this memory
system.acctest.elem_matrix0_spm.bytes_read::total     40042500                       # Number of bytes read from this memory
system.acctest.elem_matrix0_spm.bytes_written::.acctest.elem_matrix0.system.acctest.elem_matrix0     18939904                       # Number of bytes written to this memory
system.acctest.elem_matrix0_spm.bytes_written::.acctest.elem_matrix0_dma     18481156                       # Number of bytes written to this memory
system.acctest.elem_matrix0_spm.bytes_written::total     37421060                       # Number of bytes written to this memory
system.acctest.elem_matrix0_spm.num_reads::.acctest.canny_non_max0_dma         2048                       # Number of read requests responded to by this memory
system.acctest.elem_matrix0_spm.num_reads::.acctest.convolution0_dma         6144                       # Number of read requests responded to by this memory
system.acctest.elem_matrix0_spm.num_reads::.acctest.elem_matrix0.system.acctest.elem_matrix0      8290305                       # Number of read requests responded to by this memory
system.acctest.elem_matrix0_spm.num_reads::.acctest.elem_matrix0_dma       204800                       # Number of read requests responded to by this memory
system.acctest.elem_matrix0_spm.num_reads::.acctest.harris_non_max0_dma         2048                       # Number of read requests responded to by this memory
system.acctest.elem_matrix0_spm.num_reads::total      8505345                       # Number of read requests responded to by this memory
system.acctest.elem_matrix0_spm.num_writes::.acctest.elem_matrix0.system.acctest.elem_matrix0      4734976                       # Number of write requests responded to by this memory
system.acctest.elem_matrix0_spm.num_writes::.acctest.elem_matrix0_dma       577537                       # Number of write requests responded to by this memory
system.acctest.elem_matrix0_spm.num_writes::total      5312513                       # Number of write requests responded to by this memory
system.acctest.elem_matrix0_spm.bw_read::.acctest.canny_non_max0_dma      2526497                       # Total read bandwidth from this memory (bytes/s)
system.acctest.elem_matrix0_spm.bw_read::.acctest.convolution0_dma      7579490                       # Total read bandwidth from this memory (bytes/s)
system.acctest.elem_matrix0_spm.bw_read::.acctest.elem_matrix0.system.acctest.elem_matrix0   1278407524                       # Total read bandwidth from this memory (bytes/s)
system.acctest.elem_matrix0_spm.bw_read::.acctest.elem_matrix0_dma    252649678                       # Total read bandwidth from this memory (bytes/s)
system.acctest.elem_matrix0_spm.bw_read::.acctest.harris_non_max0_dma      2526497                       # Total read bandwidth from this memory (bytes/s)
system.acctest.elem_matrix0_spm.bw_read::total   1543689685                       # Total read bandwidth from this memory (bytes/s)
system.acctest.elem_matrix0_spm.bw_write::.acctest.elem_matrix0.system.acctest.elem_matrix0    730157569                       # Write bandwidth from this memory (bytes/s)
system.acctest.elem_matrix0_spm.bw_write::.acctest.elem_matrix0_dma    712472245                       # Write bandwidth from this memory (bytes/s)
system.acctest.elem_matrix0_spm.bw_write::total   1442629814                       # Write bandwidth from this memory (bytes/s)
system.acctest.elem_matrix0_spm.bw_total::.acctest.canny_non_max0_dma      2526497                       # Total bandwidth to/from this memory (bytes/s)
system.acctest.elem_matrix0_spm.bw_total::.acctest.convolution0_dma      7579490                       # Total bandwidth to/from this memory (bytes/s)
[...]
system.cpu.icache.tags.avg_refs           7112.272588                       # Average number of references to valid blocks.
system.cpu.icache.tags.warmup_cycle                 0                       # Cycle when the warmup percentage was hit.
system.cpu.icache.tags.occ_blocks::.cpu.inst   496.586781                       # Average occupied blocks per requestor
system.cpu.icache.tags.occ_percent::.cpu.inst     0.969896                       # Average percentage of cache occupancy
system.cpu.icache.tags.occ_percent::total     0.969896                       # Average percentage of cache occupancy
system.cpu.icache.tags.occ_task_id_blocks::1024          503                       # Occupied blocks per task id
system.cpu.icache.tags.age_task_id_blocks_1024::0            4                       # Occupied blocks per task id
system.cpu.icache.tags.age_task_id_blocks_1024::3            7                       # Occupied blocks per task id
system.cpu.icache.tags.age_task_id_blocks_1024::4          492                       # Occupied blocks per task id
system.cpu.icache.tags.occ_task_id_percent::1024     0.982422                       # Percentage of cache occupancy per task id
system.cpu.icache.tags.tag_accesses           3329778                       # Number of tag accesses
system.cpu.icache.tags.data_accesses          3329778                       # Number of data accesses
system.cpu.dtb.walker.pwrStateResidencyTicks::UNDEFINED  32846576250                       # Cumulative time (in ticks) in various power states
system.cpu.dtb.stage2_mmu.stage2_tlb.walker.pwrStateResidencyTicks::UNDEFINED  32846576250                       # Cumulative time (in ticks) in various power states
system.cpu.dcache.pwrStateResidencyTicks::UNDEFINED  32846576250                       # Cumulative time (in ticks) in various power states
system.cpu.dcache.demand_hits::.cpu.data       273075                       # number of demand (read+write) hits
system.cpu.dcache.demand_hits::total           273075                       # number of demand (read+write) hits
system.cpu.dcache.overall_hits::.cpu.data       273075                       # number of overall hits
system.cpu.dcache.overall_hits::total          273075                       # number of overall hits
system.cpu.dcache.demand_misses::.cpu.data         1413                       # number of demand (read+write) misses
system.cpu.dcache.demand_misses::total           1413                       # number of demand (read+write) misses
system.cpu.dcache.overall_misses::.cpu.data         1413                       # number of overall misses
system.cpu.dcache.overall_misses::total          1413                       # number of overall misses
system.cpu.dcache.demand_miss_latency::.cpu.data    108061000                       # number of demand (read+write) miss cycles
system.cpu.dcache.demand_miss_latency::total    108061000                       # number of demand (read+write) miss cycles
system.cpu.dcache.overall_miss_latency::.cpu.data    108061000                       # number of overall miss cycles
system.cpu.dcache.overall_miss_latency::total    108061000                       # number of overall miss cycles
system.cpu.dcache.demand_accesses::.cpu.data       274488                       # number of demand (read+write) accesses
system.cpu.dcache.demand_accesses::total       274488                       # number of demand (read+write) accesses
system.cpu.dcache.overall_accesses::.cpu.data       274488                       # number of overall (read+write) accesses
system.cpu.dcache.overall_accesses::total       274488                       # number of overall (read+write) accesses
system.cpu.dcache.demand_miss_rate::.cpu.data     0.005148                       # miss rate for demand accesses
system.cpu.dcache.demand_miss_rate::total     0.005148                       # miss rate for demand accesses
system.cpu.dcache.overall_miss_rate::.cpu.data     0.005148                       # miss rate for overall accesses
system.cpu.dcache.overall_miss_rate::total     0.005148                       # miss rate for overall accesses
system.cpu.dcache.demand_avg_miss_latency::.cpu.data 76476.291578                       # average overall miss latency
system.cpu.dcache.demand_avg_miss_latency::total 76476.291578                       # average overall miss latency
system.cpu.dcache.overall_avg_miss_latency::.cpu.data 76476.291578                       # average overall miss latency
system.cpu.dcache.overall_avg_miss_latency::total 76476.291578                       # average overall miss latency
system.cpu.dcache.blocked_cycles::no_mshrs            0                       # number of cycles access was blocked
system.cpu.dcache.blocked_cycles::no_targets            0                       # number of cycles access was blocked
system.cpu.dcache.blocked::no_mshrs                 0                       # number of cycles access was blocked
system.cpu.dcache.blocked::no_targets               0                       # number of cycles access was blocked
system.cpu.dcache.avg_blocked_cycles::no_mshrs          nan                       # average number of cycles each access was blocked
system.cpu.dcache.avg_blocked_cycles::no_targets          nan                       # average number of cycles each access was blocked
system.cpu.dcache.writebacks::.writebacks          733                       # number of writebacks
system.cpu.dcache.writebacks::total               733                       # number of writebacks
system.cpu.dcache.demand_mshr_hits::.cpu.data          284                       # number of demand (read+write) MSHR hits
system.cpu.dcache.demand_mshr_hits::total          284                       # number of demand (read+write) MSHR hits
system.cpu.dcache.overall_mshr_hits::.cpu.data          284                       # number of overall MSHR hits
system.cpu.dcache.overall_mshr_hits::total          284                       # number of overall MSHR hits
system.cpu.dcache.demand_mshr_misses::.cpu.data         1129                       # number of demand (read+write) MSHR misses
system.cpu.dcache.demand_mshr_misses::total         1129                       # number of demand (read+write) MSHR misses
system.cpu.dcache.overall_mshr_misses::.cpu.data         1129                       # number of overall MSHR misses
system.cpu.dcache.overall_mshr_misses::total         1129                       # number of overall MSHR misses
system.cpu.dcache.overall_mshr_uncacheable_misses::.cpu.data         7760                       # number of overall MSHR uncacheable misses
system.cpu.dcache.overall_mshr_uncacheable_misses::total         7760                       # number of overall MSHR uncacheable misses
system.cpu.dcache.demand_mshr_miss_latency::.cpu.data     84619750                       # number of demand (read+write) MSHR miss cycles
system.cpu.dcache.demand_mshr_miss_latency::total     84619750                       # number of demand (read+write) MSHR miss cycles
system.cpu.dcache.overall_mshr_miss_latency::.cpu.data     84619750                       # number of overall MSHR miss cycles
system.cpu.dcache.overall_mshr_miss_latency::total     84619750                       # number of overall MSHR miss cycles
system.cpu.dcache.overall_mshr_uncacheable_latency::.cpu.data     16540500                       # number of overall MSHR uncacheable cycles
system.cpu.dcache.overall_mshr_uncacheable_latency::total     16540500                       # number of overall MSHR uncacheable cycles
system.cpu.dcache.demand_mshr_miss_rate::.cpu.data     0.004113                       # mshr miss rate for demand accesses
system.cpu.dcache.demand_mshr_miss_rate::total     0.004113                       # mshr miss rate for demand accesses
system.cpu.dcache.overall_mshr_miss_rate::.cpu.data     0.004113                       # mshr miss rate for overall accesses
system.cpu.dcache.overall_mshr_miss_rate::total     0.004113                       # mshr miss rate for overall accesses
system.cpu.dcache.demand_avg_mshr_miss_latency::.cpu.data 74951.062888                       # average overall mshr miss latency
system.cpu.dcache.demand_avg_mshr_miss_latency::total 74951.062888                       # average overall mshr miss latency
system.cpu.dcache.overall_avg_mshr_miss_latency::.cpu.data 74951.062888                       # average overall mshr miss latency
system.cpu.dcache.overall_avg_mshr_miss_latency::total 74951.062888                       # average overall mshr miss latency
system.cpu.dcache.overall_avg_mshr_uncacheable_latency::.cpu.data  2131.507732                       # average overall mshr uncacheable latency
system.cpu.dcache.overall_avg_mshr_uncacheable_latency::total  2131.507732                       # average overall mshr uncacheable latency
system.cpu.dcache.replacements                   1129                       # number of replacements
system.cpu.dcache.ReadReq_hits::.cpu.data       172330                       # number of ReadReq hits
system.cpu.dcache.ReadReq_hits::total          172330                       # number of ReadReq hits
system.cpu.dcache.ReadReq_misses::.cpu.data          868                       # number of ReadReq misses
system.cpu.dcache.ReadReq_misses::total           868                       # number of ReadReq misses
system.cpu.dcache.ReadReq_miss_latency::.cpu.data     66307375                       # number of ReadReq miss cycles
system.cpu.dcache.ReadReq_miss_latency::total     66307375                       # number of ReadReq miss cycles
system.cpu.dcache.ReadReq_accesses::.cpu.data       173198                       # number of ReadReq accesses(hits+misses)
system.cpu.dcache.ReadReq_accesses::total       173198                       # number of ReadReq accesses(hits+misses)
system.cpu.dcache.ReadReq_miss_rate::.cpu.data     0.005012                       # miss rate for ReadReq accesses
system.cpu.dcache.ReadReq_miss_rate::total     0.005012                       # miss rate for ReadReq accesses
system.cpu.dcache.ReadReq_avg_miss_latency::.cpu.data 76390.985023                       # average ReadReq miss latency
system.cpu.dcache.ReadReq_avg_miss_latency::total 76390.985023                       # average ReadReq miss latency
system.cpu.dcache.ReadReq_mshr_hits::.cpu.data           22                       # number of ReadReq MSHR hits
system.cpu.dcache.ReadReq_mshr_hits::total           22                       # number of ReadReq MSHR hits
system.cpu.dcache.ReadReq_mshr_misses::.cpu.data          846                       # number of ReadReq MSHR misses
system.cpu.dcache.ReadReq_mshr_misses::total          846                       # number of ReadReq MSHR misses
system.cpu.dcache.ReadReq_mshr_uncacheable::.cpu.data          761                       # number of ReadReq MSHR uncacheable
system.cpu.dcache.ReadReq_mshr_uncacheable::total          761                       # number of ReadReq MSHR uncacheable
system.cpu.dcache.ReadReq_mshr_miss_latency::.cpu.data     63409125                       # number of ReadReq MSHR miss cycles
system.cpu.dcache.ReadReq_mshr_miss_latency::total     63409125                       # number of ReadReq MSHR miss cycles
system.cpu.dcache.ReadReq_mshr_uncacheable_latency::.cpu.data     16540500                       # number of ReadReq MSHR uncacheable cycles
system.cpu.dcache.ReadReq_mshr_uncacheable_latency::total     16540500                       # number of ReadReq MSHR uncacheable cycles
system.cpu.dcache.ReadReq_mshr_miss_rate::.cpu.data     0.004885                       # mshr miss rate for ReadReq accesses
system.cpu.dcache.ReadReq_mshr_miss_rate::total     0.004885                       # mshr miss rate for ReadReq accesses
system.cpu.dcache.ReadReq_avg_mshr_miss_latency::.cpu.data 74951.684397                       # average ReadReq mshr miss latency
system.cpu.dcache.ReadReq_avg_mshr_miss_latency::total 74951.684397                       # average ReadReq mshr miss latency
system.cpu.dcache.ReadReq_avg_mshr_uncacheable_latency::.cpu.data 21735.216820                       # average ReadReq mshr uncacheable latency
system.cpu.dcache.ReadReq_avg_mshr_uncacheable_latency::total 21735.216820                       # average ReadReq mshr uncacheable latency
system.cpu.dcache.WriteReq_hits::.cpu.data       100745                       # number of WriteReq hits
system.cpu.dcache.WriteReq_hits::total         100745                       # number of WriteReq hits
system.cpu.dcache.WriteReq_misses::.cpu.data          545                       # number of WriteReq misses
system.cpu.dcache.WriteReq_misses::total          545                       # number of WriteReq misses
system.cpu.dcache.WriteReq_miss_latency::.cpu.data     41753625                       # number of WriteReq miss cycles
system.cpu.dcache.WriteReq_miss_latency::total     41753625                       # number of WriteReq miss cycles
system.cpu.dcache.WriteReq_accesses::.cpu.data       101290                       # number of WriteReq accesses(hits+misses)
system.cpu.dcache.WriteReq_accesses::total       101290                       # number of WriteReq accesses(hits+misses)
system.cpu.dcache.WriteReq_miss_rate::.cpu.data     0.005381                       # miss rate for WriteReq accesses
system.cpu.dcache.WriteReq_miss_rate::total     0.005381                       # miss rate for WriteReq accesses
system.cpu.dcache.WriteReq_avg_miss_latency::.cpu.data 76612.155963                       # average WriteReq miss latency
system.cpu.dcache.WriteReq_avg_miss_latency::total 76612.155963                       # average WriteReq miss latency
system.cpu.dcache.WriteReq_mshr_hits::.cpu.data          262                       # number of WriteReq MSHR hits
system.cpu.dcache.WriteReq_mshr_hits::total          262                       # number of WriteReq MSHR hits
system.cpu.dcache.WriteReq_mshr_misses::.cpu.data          283                       # number of WriteReq MSHR misses
system.cpu.dcache.WriteReq_mshr_misses::total          283                       # number of WriteReq MSHR misses
system.cpu.dcache.WriteReq_mshr_uncacheable::.cpu.data         6999                       # number of WriteReq MSHR uncacheable
system.cpu.dcache.WriteReq_mshr_uncacheable::total         6999                       # number of WriteReq MSHR uncacheable
system.cpu.dcache.WriteReq_mshr_miss_latency::.cpu.data     21210625                       # number of WriteReq MSHR miss cycles
system.cpu.dcache.WriteReq_mshr_miss_latency::total     21210625                       # number of WriteReq MSHR miss cycles
system.cpu.dcache.WriteReq_mshr_miss_rate::.cpu.data     0.002794                       # mshr miss rate for WriteReq accesses
system.cpu.dcache.WriteReq_mshr_miss_rate::total     0.002794                       # mshr miss rate for WriteReq accesses
system.cpu.dcache.WriteReq_avg_mshr_miss_latency::.cpu.data 74949.204947                       # average WriteReq mshr miss latency
system.cpu.dcache.WriteReq_avg_mshr_miss_latency::total 74949.204947                       # average WriteReq mshr miss latency
system.cpu.dcache.CleanInvalidReq_mshr_misses::.cpu.data       414524                       # number of CleanInvalidReq MSHR misses
system.cpu.dcache.CleanInvalidReq_mshr_misses::total       414524                       # number of CleanInvalidReq MSHR misses
system.cpu.dcache.CleanInvalidReq_mshr_miss_latency::.cpu.data   4308882500                       # number of CleanInvalidReq MSHR miss cycles
system.cpu.dcache.CleanInvalidReq_mshr_miss_latency::total   4308882500                       # number of CleanInvalidReq MSHR miss cycles
system.cpu.dcache.CleanInvalidReq_mshr_miss_rate::.cpu.data          inf                       # mshr miss rate for CleanInvalidReq accesses
system.cpu.dcache.CleanInvalidReq_mshr_miss_rate::total          inf                       # mshr miss rate for CleanInvalidReq accesses
system.cpu.dcache.CleanInvalidReq_avg_mshr_miss_latency::.cpu.data 10394.772076                       # average CleanInvalidReq mshr miss latency
system.cpu.dcache.CleanInvalidReq_avg_mshr_miss_latency::total 10394.772076                       # average CleanInvalidReq mshr miss latency
system.cpu.dcache.InvalidateReq_mshr_hits::.cpu.data       119730                       # number of InvalidateReq MSHR hits
system.cpu.dcache.InvalidateReq_mshr_hits::total       119730                       # number of InvalidateReq MSHR hits
system.cpu.dcache.InvalidateReq_mshr_misses::.cpu.data       294794                       # number of InvalidateReq MSHR misses
system.cpu.dcache.InvalidateReq_mshr_misses::total       294794                       # number of InvalidateReq MSHR misses
system.cpu.dcache.InvalidateReq_mshr_miss_latency::.cpu.data   4196543412                       # number of InvalidateReq MSHR miss cycles
system.cpu.dcache.InvalidateReq_mshr_miss_latency::total   4196543412                       # number of InvalidateReq MSHR miss cycles
system.cpu.dcache.InvalidateReq_mshr_miss_rate::.cpu.data          inf                       # mshr miss rate for InvalidateReq accesses
system.cpu.dcache.InvalidateReq_mshr_miss_rate::total          inf                       # mshr miss rate for InvalidateReq accesses
system.cpu.dcache.InvalidateReq_avg_mshr_miss_latency::.cpu.data 14235.511618                       # average InvalidateReq mshr miss latency
system.cpu.dcache.InvalidateReq_avg_mshr_miss_latency::total 14235.511618                       # average InvalidateReq mshr miss latency
system.cpu.dcache.tags.pwrStateResidencyTicks::UNDEFINED  32846576250                       # Cumulative time (in ticks) in various power states
system.cpu.dcache.tags.tagsinuse           511.413197                       # Cycle average of tags in use
system.cpu.dcache.tags.total_refs              275996                       # Total number of references to valid blocks.
system.cpu.dcache.tags.sampled_refs              1641                       # Sample count of references to valid blocks.
system.cpu.dcache.tags.avg_refs            168.187690                       # Average number of references to valid blocks.
system.cpu.dcache.tags.warmup_cycle                 0                       # Cycle when the warmup percentage was hit.
system.cpu.dcache.tags.occ_blocks::.cpu.data   511.413197                       # Average occupied blocks per requestor
system.cpu.dcache.tags.occ_percent::.cpu.data     0.998854                       # Average percentage of cache occupancy
system.cpu.dcache.tags.occ_percent::total     0.998854                       # Average percentage of cache occupancy
system.cpu.dcache.tags.occ_task_id_blocks::1024          511                       # Occupied blocks per task id
system.cpu.dcache.tags.age_task_id_blocks_1024::0            4                       # Occupied blocks per task id
system.cpu.dcache.tags.age_task_id_blocks_1024::1            1                       # Occupied blocks per task id
system.cpu.dcache.tags.age_task_id_blocks_1024::3           59                       # Occupied blocks per task id
system.cpu.dcache.tags.age_task_id_blocks_1024::4          447                       # Occupied blocks per task id
system.cpu.dcache.tags.occ_task_id_percent::1024     0.998047                       # Percentage of cache occupancy per task id
system.cpu.dcache.tags.tag_accesses           4415273                       # Number of tag accesses
system.cpu.dcache.tags.data_accesses          4415273                       # Number of data accesses
system.cpu.itb.walker.pwrStateResidencyTicks::UNDEFINED  32846576250                       # Cumulative time (in ticks) in various power states
system.cpu.itb.stage2_mmu.stage2_tlb.walker.pwrStateResidencyTicks::UNDEFINED  32846576250                       # Cumulative time (in ticks) in various power states

---------- End Simulation Statistics   ----------
