
---------- Begin Simulation Statistics ----------
final_tick                               614361363750                       # Number of ticks from beginning of simulation (restored from checkpoints and never reset)
host_inst_rate                                    644                       # Simulator instruction rate (inst/s)
host_mem_usage                               21932872                       # Number of bytes of host memory used
host_op_rate                                      661                       # Simulator op (including micro ops) rate (op/s)
host_seconds                                 73610.12                       # Real time elapsed on the host
host_tick_rate                                1383432                       # Simulator tick rate (ticks/s)
sim_freq                                 1000000000000                       # Frequency of simulated ticks
sim_insts                                    47422805                       # Number of instructions simulated
sim_ops                                      48670191                       # Number of ops (including micro ops) simulated
sim_seconds                                  0.101835                       # Number of seconds simulated
sim_ticks                                101834561875                       # Number of ticks simulated
system.acctest.coherency_bus.snoop_filter.hit_multi_requests            0                       # Number of requests hitting in the snoop filter with multiple (>1) holders of the requested data.
system.acctest.coherency_bus.snoop_filter.hit_multi_snoops            0                       # Number of snoops hitting in the snoop filter with multiple (>1) holders of the requested data.
system.acctest.coherency_bus.snoop_filter.hit_single_requests            0                       # Number of requests hitting in the snoop filter with a single holder of the requested data.
system.acctest.coherency_bus.snoop_filter.hit_single_snoops            0                       # Number of snoops hitting in the snoop filter with a single holder of the requested data.
system.acctest.coherency_bus.snoop_filter.tot_requests            0                       # Total number of requests made to the snoop filter.
system.acctest.coherency_bus.snoop_filter.tot_snoops            0                       # Total number of snoops made to the snoop filter.
system.cf0.dma_read_bytes                           0                       # Number of bytes transfered via DMA reads (not PRD).
system.cf0.dma_read_full_pages                      0                       # Number of full page size DMA reads (not PRD).
system.cf0.dma_read_txs                             0                       # Number of DMA read transactions (not PRD).
system.cf0.dma_write_bytes                          0                       # Number of bytes transfered via DMA writes.
system.cf0.dma_write_full_pages                     0                       # Number of full page size DMA writes.
system.cf0.dma_write_txs                            0                       # Number of DMA write transactions.
system.cpu.branchPred.BTBCorrect                    0                       # Number of correct BTB predictions (this stat may not work properly.
system.cpu.branchPred.BTBHitPct             98.472439                       # BTB Hit Percentage
system.cpu.branchPred.BTBHits                  563156                       # Number of BTB hits
system.cpu.branchPred.BTBLookups               571892                       # Number of BTB lookups
system.cpu.branchPred.RASInCorrect                  0                       # Number of incorrect RAS predictions.
system.cpu.branchPred.condIncorrect              7761                       # Number of conditional branches incorrect
system.cpu.branchPred.condPredicted            682970                       # Number of conditional branches predicted
system.cpu.branchPred.indirectHits               2336                       # Number of indirect target hits.
system.cpu.branchPred.indirectLookups            2528                       # Number of indirect predictor lookups.
system.cpu.branchPred.indirectMisses              192                       # Number of indirect misses.
system.cpu.branchPred.lookups                  725433                       # Number of BP lookups
system.cpu.branchPred.usedRAS                    4641                       # Number of times the RAS was used to get a target.
system.cpu.branchPredindirectMispredicted          157                       # Number of mispredicted indirect branches.
system.cpu.committedInsts                     3045002                       # Number of instructions committed
system.cpu.committedOps                       3106201                       # Number of ops (including micro ops) committed
system.cpu.cpi                              53.509094                       # CPI: cycles per instruction
system.cpu.discardedOps                         28638                       # Number of ops (including micro ops) which were discarded before commit
system.cpu.dtb.accesses                             0                       # DTB accesses
system.cpu.dtb.align_faults                         0                       # Number of TLB faults due to alignment restrictions
system.cpu.dtb.domain_faults                        0                       # Number of TLB faults due to domain restrictions
system.cpu.dtb.flush_entries                        0                       # Number of entries that have been flushed from TLB
system.cpu.dtb.flush_tlb                            0                       # Number of times complete TLB was flushed
system.cpu.dtb.flush_tlb_asid                       0                       # Number of times TLB was flushed by ASID
system.cpu.dtb.flush_tlb_mva                        0                       # Number of times TLB was flushed by MVA
system.cpu.dtb.flush_tlb_mva_asid                   0                       # Number of times TLB was flushed by MVA & ASID
system.cpu.dtb.hits                                 0                       # DTB hits
system.cpu.dtb.inst_accesses                        0                       # ITB inst accesses
system.cpu.dtb.inst_hits                            0                       # ITB inst hits
system.cpu.dtb.inst_misses                          0                       # ITB inst misses
system.cpu.dtb.misses                               0                       # DTB misses
system.cpu.dtb.perms_faults                         0                       # Number of TLB faults due to permissions restrictions
system.cpu.dtb.prefetch_faults                      0                       # Number of TLB faults due to prefetch
system.cpu.dtb.read_accesses                        0                       # DTB read accesses
system.cpu.dtb.read_hits                            0                       # DTB read hits
system.cpu.dtb.read_misses                          0                       # DTB read misses
system.cpu.dtb.stage2_mmu.stage2_tlb.accesses            0                       # DTB accesses
system.cpu.dtb.stage2_mmu.stage2_tlb.align_faults            0                       # Number of TLB faults due to alignment restrictions
system.cpu.dtb.stage2_mmu.stage2_tlb.domain_faults            0                       # Number of TLB faults due to domain restrictions
system.cpu.dtb.stage2_mmu.stage2_tlb.flush_entries            0                       # Number of entries that have been flushed from TLB
system.cpu.dtb.stage2_mmu.stage2_tlb.flush_tlb            0                       # Number of times complete TLB was flushed
system.cpu.dtb.stage2_mmu.stage2_tlb.flush_tlb_asid            0                       # Number of times TLB was flushed by ASID
system.cpu.dtb.stage2_mmu.stage2_tlb.flush_tlb_mva            0                       # Number of times TLB was flushed by MVA
system.cpu.dtb.stage2_mmu.stage2_tlb.flush_tlb_mva_asid            0                       # Number of times TLB was flushed by MVA & ASID
system.cpu.dtb.stage2_mmu.stage2_tlb.hits            0                       # DTB hits
system.cpu.dtb.stage2_mmu.stage2_tlb.inst_accesses            0                       # ITB inst accesses
system.cpu.dtb.stage2_mmu.stage2_tlb.inst_hits            0                       # ITB inst hits
system.cpu.dtb.stage2_mmu.stage2_tlb.inst_misses            0                       # ITB inst misses
system.cpu.dtb.stage2_mmu.stage2_tlb.misses            0                       # DTB misses
system.cpu.dtb.stage2_mmu.stage2_tlb.perms_faults            0                       # Number of TLB faults due to permissions restrictions
system.cpu.dtb.stage2_mmu.stage2_tlb.prefetch_faults            0                       # Number of TLB faults due to prefetch
system.cpu.dtb.stage2_mmu.stage2_tlb.read_accesses            0                       # DTB read accesses
system.cpu.dtb.stage2_mmu.stage2_tlb.read_hits            0                       # DTB read hits
system.cpu.dtb.stage2_mmu.stage2_tlb.read_misses            0                       # DTB read misses
system.cpu.dtb.stage2_mmu.stage2_tlb.walker.walkRequestOrigin_Requested::Data            0                       # Table walker requests started/completed, data/inst
system.cpu.dtb.stage2_mmu.stage2_tlb.walker.walkRequestOrigin_Requested::Inst            0                       # Table walker requests started/completed, data/inst
system.cpu.dtb.stage2_mmu.stage2_tlb.walker.walkRequestOrigin_Requested::total            0                       # Table walker requests started/completed, data/inst
system.cpu.dtb.stage2_mmu.stage2_tlb.walker.walkRequestOrigin_Completed::Data            0                       # Table walker requests started/completed, data/inst
system.cpu.dtb.stage2_mmu.stage2_tlb.walker.walkRequestOrigin_Completed::Inst            0                       # Table walker requests started/completed, data/inst
system.cpu.dtb.stage2_mmu.stage2_tlb.walker.walkRequestOrigin_Completed::total            0                       # Table walker requests started/completed, data/inst
system.cpu.dtb.stage2_mmu.stage2_tlb.walker.walkRequestOrigin::total            0                       # Table walker requests started/completed, data/inst
system.cpu.dtb.stage2_mmu.stage2_tlb.walker.walks            0                       # Table walker walks requested
system.cpu.dtb.stage2_mmu.stage2_tlb.write_accesses            0                       # DTB write accesses
system.cpu.dtb.stage2_mmu.stage2_tlb.write_hits            0                       # DTB write hits
system.cpu.dtb.stage2_mmu.stage2_tlb.write_misses            0                       # DTB write misses
system.cpu.dtb.walker.walkRequestOrigin_Requested::Data            0                       # Table walker requests started/completed, data/inst
system.cpu.dtb.walker.walkRequestOrigin_Requested::Inst            0                       # Table walker requests started/completed, data/inst
system.cpu.dtb.walker.walkRequestOrigin_Requested::total            0                       # Table walker requests started/completed, data/inst
system.cpu.dtb.walker.walkRequestOrigin_Completed::Data            0                       # Table walker requests started/completed, data/inst
system.cpu.dtb.walker.walkRequestOrigin_Completed::Inst            0                       # Table walker requests started/completed, data/inst
system.cpu.dtb.walker.walkRequestOrigin_Completed::total            0                       # Table walker requests started/completed, data/inst
system.cpu.dtb.walker.walkRequestOrigin::total            0                       # Table walker requests started/completed, data/inst
system.cpu.dtb.walker.walks                         0                       # Table walker walks requested
system.cpu.dtb.write_accesses                       0                       # DTB write accesses
system.cpu.dtb.write_hits                           0                       # DTB write hits
system.cpu.dtb.write_misses                         0                       # DTB write misses
system.cpu.fetch2.amo_instructions                  0                       # Number of memory atomic instructions successfully decoded
system.cpu.fetch2.fp_instructions                   0                       # Number of floating point instructions successfully decoded
system.cpu.fetch2.int_instructions            1381196                       # Number of integer instructions successfully decoded
system.cpu.fetch2.load_instructions            904125                       # Number of memory load instructions successfully decoded
system.cpu.fetch2.store_instructions           170259                       # Number of memory store instructions successfully decoded
system.cpu.fetch2.vec_instructions                  0                       # Number of SIMD instructions successfully decoded
system.cpu.idleCycles                       154333535                       # Total number of cycles that the object has spent stopped
system.cpu.ipc                               0.018688                       # IPC: instructions per cycle
system.cpu.itb.accesses                             0                       # DTB accesses
system.cpu.itb.align_faults                         0                       # Number of TLB faults due to alignment restrictions
system.cpu.itb.domain_faults                        0                       # Number of TLB faults due to domain restrictions
system.cpu.itb.flush_entries                        0                       # Number of entries that have been flushed from TLB
system.cpu.itb.flush_tlb                            0                       # Number of times complete TLB was flushed
system.cpu.itb.flush_tlb_asid                       0                       # Number of times TLB was flushed by ASID
system.cpu.itb.flush_tlb_mva                        0                       # Number of times TLB was flushed by MVA
system.cpu.itb.flush_tlb_mva_asid                   0                       # Number of times TLB was flushed by MVA & ASID
system.cpu.itb.hits                                 0                       # DTB hits
system.cpu.itb.inst_accesses                        0                       # ITB inst accesses
system.cpu.itb.inst_hits                            0                       # ITB inst hits
system.cpu.itb.inst_misses                          0                       # ITB inst misses
system.cpu.itb.misses                               0                       # DTB misses
system.cpu.itb.perms_faults                         0                       # Number of TLB faults due to permissions restrictions
system.cpu.itb.prefetch_faults                      0                       # Number of TLB faults due to prefetch
system.cpu.itb.read_accesses                        0                       # DTB read accesses
system.cpu.itb.read_hits                            0                       # DTB read hits
system.cpu.itb.read_misses                          0                       # DTB read misses
system.cpu.itb.stage2_mmu.stage2_tlb.accesses            0                       # DTB accesses
system.cpu.itb.stage2_mmu.stage2_tlb.align_faults            0                       # Number of TLB faults due to alignment restrictions
system.cpu.itb.stage2_mmu.stage2_tlb.domain_faults            0                       # Number of TLB faults due to domain restrictions
system.cpu.itb.stage2_mmu.stage2_tlb.flush_entries            0                       # Number of entries that have been flushed from TLB
system.cpu.itb.stage2_mmu.stage2_tlb.flush_tlb            0                       # Number of times complete TLB was flushed
system.cpu.itb.stage2_mmu.stage2_tlb.flush_tlb_asid            0                       # Number of times TLB was flushed by ASID
system.cpu.itb.stage2_mmu.stage2_tlb.flush_tlb_mva            0                       # Number of times TLB was flushed by MVA
system.cpu.itb.stage2_mmu.stage2_tlb.flush_tlb_mva_asid            0                       # Number of times TLB was flushed by MVA & ASID
system.cpu.itb.stage2_mmu.stage2_tlb.hits            0                       # DTB hits
system.cpu.itb.stage2_mmu.stage2_tlb.inst_accesses            0                       # ITB inst accesses
system.cpu.itb.stage2_mmu.stage2_tlb.inst_hits            0                       # ITB inst hits
system.cpu.itb.stage2_mmu.stage2_tlb.inst_misses            0                       # ITB inst misses
system.cpu.itb.stage2_mmu.stage2_tlb.misses            0                       # DTB misses
system.cpu.itb.stage2_mmu.stage2_tlb.perms_faults            0                       # Number of TLB faults due to permissions restrictions
system.cpu.itb.stage2_mmu.stage2_tlb.prefetch_faults            0                       # Number of TLB faults due to prefetch
system.cpu.itb.stage2_mmu.stage2_tlb.read_accesses            0                       # DTB read accesses
system.cpu.itb.stage2_mmu.stage2_tlb.read_hits            0                       # DTB read hits
system.cpu.itb.stage2_mmu.stage2_tlb.read_misses            0                       # DTB read misses
system.cpu.itb.stage2_mmu.stage2_tlb.walker.walkRequestOrigin_Requested::Data            0                       # Table walker requests started/completed, data/inst
system.cpu.itb.stage2_mmu.stage2_tlb.walker.walkRequestOrigin_Requested::Inst            0                       # Table walker requests started/completed, data/inst
system.cpu.itb.stage2_mmu.stage2_tlb.walker.walkRequestOrigin_Requested::total            0                       # Table walker requests started/completed, data/inst
system.cpu.itb.stage2_mmu.stage2_tlb.walker.walkRequestOrigin_Completed::Data            0                       # Table walker requests started/completed, data/inst
system.cpu.itb.stage2_mmu.stage2_tlb.walker.walkRequestOrigin_Completed::Inst            0                       # Table walker requests started/completed, data/inst
system.cpu.itb.stage2_mmu.stage2_tlb.walker.walkRequestOrigin_Completed::total            0                       # Table walker requests started/completed, data/inst
system.cpu.itb.stage2_mmu.stage2_tlb.walker.walkRequestOrigin::total            0                       # Table walker requests started/completed, data/inst
system.cpu.itb.stage2_mmu.stage2_tlb.walker.walks            0                       # Table walker walks requested
system.cpu.itb.stage2_mmu.stage2_tlb.write_accesses            0                       # DTB write accesses
system.cpu.itb.stage2_mmu.stage2_tlb.write_hits            0                       # DTB write hits
system.cpu.itb.stage2_mmu.stage2_tlb.write_misses            0                       # DTB write misses
system.cpu.itb.walker.walkRequestOrigin_Requested::Data            0                       # Table walker requests started/completed, data/inst
system.cpu.itb.walker.walkRequestOrigin_Requested::Inst            0                       # Table walker requests started/completed, data/inst
system.cpu.itb.walker.walkRequestOrigin_Requested::total            0                       # Table walker requests started/completed, data/inst
system.cpu.itb.walker.walkRequestOrigin_Completed::Data            0                       # Table walker requests started/completed, data/inst
system.cpu.itb.walker.walkRequestOrigin_Completed::Inst            0                       # Table walker requests started/completed, data/inst
system.cpu.itb.walker.walkRequestOrigin_Completed::total            0                       # Table walker requests started/completed, data/inst
system.cpu.itb.walker.walkRequestOrigin::total            0                       # Table walker requests started/completed, data/inst
system.cpu.itb.walker.walks                         0                       # Table walker walks requested
system.cpu.itb.write_accesses                       0                       # DTB write accesses
system.cpu.itb.write_hits                           0                       # DTB write hits
system.cpu.itb.write_misses                         0                       # DTB write misses
system.cpu.kern.inst.arm                            0                       # number of arm instructions executed
system.cpu.kern.inst.quiesce                        0                       # number of quiesce instructions executed
system.cpu.numCycles                        162935299                       # number of cpu cycles simulated
system.cpu.numFetchSuspends                         0                       # Number of times Execute suspended instruction fetching
system.cpu.numWorkItemsCompleted                    0                       # number of work items this cpu completed
system.cpu.numWorkItemsStarted                      0                       # number of work items this cpu started
system.cpu.op_class_0::No_OpClass                   0      0.00%      0.00% # Class of committed instruction
system.cpu.op_class_0::IntAlu                 2015612     64.89%     64.89% # Class of committed instruction
system.cpu.op_class_0::IntMult                   2187      0.07%     64.96% # Class of committed instruction
system.cpu.op_class_0::IntDiv                       0      0.00%     64.96% # Class of committed instruction
system.cpu.op_class_0::FloatAdd                     0      0.00%     64.96% # Class of committed instruction
system.cpu.op_class_0::FloatCmp                     0      0.00%     64.96% # Class of committed instruction
system.cpu.op_class_0::FloatCvt                     0      0.00%     64.96% # Class of committed instruction
system.cpu.op_class_0::FloatMult                    0      0.00%     64.96% # Class of committed instruction
system.cpu.op_class_0::FloatMultAcc                 0      0.00%     64.96% # Class of committed instruction
system.cpu.op_class_0::FloatDiv                     0      0.00%     64.96% # Class of committed instruction
system.cpu.op_class_0::FloatMisc                    0      0.00%     64.96% # Class of committed instruction
system.cpu.op_class_0::FloatSqrt                    0      0.00%     64.96% # Class of committed instruction
system.cpu.op_class_0::SimdAdd                      0      0.00%     64.96% # Class of committed instruction
system.cpu.op_class_0::SimdAddAcc                   0      0.00%     64.96% # Class of committed instruction
system.cpu.op_class_0::SimdAlu                      0      0.00%     64.96% # Class of committed instruction
system.cpu.op_class_0::SimdCmp                      0      0.00%     64.96% # Class of committed instruction
system.cpu.op_class_0::SimdCvt                      0      0.00%     64.96% # Class of committed instruction
system.cpu.op_class_0::SimdMisc                     0      0.00%     64.96% # Class of committed instruction
system.cpu.op_class_0::SimdMult                     0      0.00%     64.96% # Class of committed instruction
system.cpu.op_class_0::SimdMultAcc                  0      0.00%     64.96% # Class of committed instruction
system.cpu.op_class_0::SimdShift                    0      0.00%     64.96% # Class of committed instruction
system.cpu.op_class_0::SimdShiftAcc                 0      0.00%     64.96% # Class of committed instruction
system.cpu.op_class_0::SimdDiv                      0      0.00%     64.96% # Class of committed instruction
system.cpu.op_class_0::SimdSqrt                     0      0.00%     64.96% # Class of committed instruction
system.cpu.op_class_0::SimdFloatAdd                 0      0.00%     64.96% # Class of committed instruction
system.cpu.op_class_0::SimdFloatAlu                 0      0.00%     64.96% # Class of committed instruction
system.cpu.op_class_0::SimdFloatCmp                 0      0.00%     64.96% # Class of committed instruction
system.cpu.op_class_0::SimdFloatCvt                 0      0.00%     64.96% # Class of committed instruction
system.cpu.op_class_0::SimdFloatDiv                 0      0.00%     64.96% # Class of committed instruction
system.cpu.op_class_0::SimdFloatMisc                0      0.00%     64.96% # Class of committed instruction
system.cpu.op_class_0::SimdFloatMult                0      0.00%     64.96% # Class of committed instruction
system.cpu.op_class_0::SimdFloatMultAcc             0      0.00%     64.96% # Class of committed instruction
system.cpu.op_class_0::SimdFloatSqrt                0      0.00%     64.96% # Class of committed instruction
system.cpu.op_class_0::SimdReduceAdd                0      0.00%     64.96% # Class of committed instruction
system.cpu.op_class_0::SimdReduceAlu                0      0.00%     64.96% # Class of committed instruction
system.cpu.op_class_0::SimdReduceCmp                0      0.00%     64.96% # Class of committed instruction
system.cpu.op_class_0::SimdFloatReduceAdd            0      0.00%     64.96% # Class of committed instruction
system.cpu.op_class_0::SimdFloatReduceCmp            0      0.00%     64.96% # Class of committed instruction
system.cpu.op_class_0::SimdAes                      0      0.00%     64.96% # Class of committed instruction
system.cpu.op_class_0::SimdAesMix                   0      0.00%     64.96% # Class of committed instruction
system.cpu.op_class_0::SimdSha1Hash                 0      0.00%     64.96% # Class of committed instruction
system.cpu.op_class_0::SimdSha1Hash2                0      0.00%     64.96% # Class of committed instruction
system.cpu.op_class_0::SimdSha256Hash               0      0.00%     64.96% # Class of committed instruction
system.cpu.op_class_0::SimdSha256Hash2              0      0.00%     64.96% # Class of committed instruction
system.cpu.op_class_0::SimdShaSigma2                0      0.00%     64.96% # Class of committed instruction
system.cpu.op_class_0::SimdShaSigma3                0      0.00%     64.96% # Class of committed instruction
system.cpu.op_class_0::SimdPredAlu                  0      0.00%     64.96% # Class of committed instruction
system.cpu.op_class_0::MemRead                 890072     28.65%     93.62% # Class of committed instruction
system.cpu.op_class_0::MemWrite                198330      6.38%    100.00% # Class of committed instruction
system.cpu.op_class_0::FloatMemRead                 0      0.00%    100.00% # Class of committed instruction
system.cpu.op_class_0::FloatMemWrite                0      0.00%    100.00% # Class of committed instruction
system.cpu.op_class_0::IprAccess                    0      0.00%    100.00% # Class of committed instruction
system.cpu.op_class_0::InstPrefetch                 0      0.00%    100.00% # Class of committed instruction
system.cpu.op_class_0::total                  3106201                       # Class of committed instruction
system.cpu.tickCycles                         8601764                       # Number of cycles that the object actually ticked
system.membus.snoop_filter.hit_multi_requests            0                       # Number of requests hitting in the snoop filter with multiple (>1) holders of the requested data.
system.membus.snoop_filter.hit_multi_snoops            0                       # Number of snoops hitting in the snoop filter with multiple (>1) holders of the requested data.
system.membus.snoop_filter.hit_single_requests            0                       # Number of requests hitting in the snoop filter with a single holder of the requested data.
system.membus.snoop_filter.hit_single_snoops            0                       # Number of snoops hitting in the snoop filter with a single holder of the requested data.
system.membus.snoop_filter.tot_requests             0                       # Total number of requests made to the snoop filter.
system.membus.snoop_filter.tot_snoops               0                       # Total number of snoops made to the snoop filter.
system.bridge.pwrStateResidencyTicks::UNDEFINED 614361363750                       # Cumulative time (in ticks) in various power states
system.voltage_domain.voltage                       1                       # Voltage in Volts
system.iocache.pwrStateResidencyTicks::UNDEFINED 614361363750                       # Cumulative time (in ticks) in various power states
system.iocache.blocked_cycles::no_mshrs             0                       # number of cycles access was blocked
system.iocache.blocked_cycles::no_targets            0                       # number of cycles access was blocked
system.iocache.blocked::no_mshrs                    0                       # number of cycles access was blocked
system.iocache.blocked::no_targets                  0                       # number of cycles access was blocked
system.iocache.avg_blocked_cycles::no_mshrs          nan                       # average number of cycles each access was blocked
system.iocache.avg_blocked_cycles::no_targets          nan                       # average number of cycles each access was blocked
system.iocache.replacements                         0                       # number of replacements
system.iocache.tags.pwrStateResidencyTicks::UNDEFINED 614361363750                       # Cumulative time (in ticks) in various power states
system.iocache.tags.tagsinuse                       0                       # Cycle average of tags in use
system.iocache.tags.total_refs                      0                       # Total number of references to valid blocks.
system.iocache.tags.sampled_refs                    0                       # Sample count of references to valid blocks.
system.iocache.tags.avg_refs                      nan                       # Average number of references to valid blocks.
system.iocache.tags.warmup_cycle                    0                       # Cycle when the warmup percentage was hit.
system.iocache.tags.tag_accesses                    0                       # Number of tag accesses
system.iocache.tags.data_accesses                   0                       # Number of data accesses
system.membus.pwrStateResidencyTicks::UNDEFINED 614361363750                       # Cumulative time (in ticks) in various power states
system.membus.trans_dist::ReadReq             5921296                       # Transaction distribution
system.membus.trans_dist::ReadResp            5921296                       # Transaction distribution
system.membus.trans_dist::WriteReq            2209515                       # Transaction distribution
system.membus.trans_dist::WriteResp           2209515                       # Transaction distribution
system.membus.pkt_count_system.cpu.icache.mem_side::system.realview.bootmem.port      2871592                       # Packet count per connected master and slave (bytes)
system.membus.pkt_count_system.cpu.icache.mem_side::total      2871592                       # Packet count per connected master and slave (bytes)
system.membus.pkt_count_system.cpu.dcache.mem_side::system.realview.bootmem.port        69816                       # Packet count per connected master and slave (bytes)
system.membus.pkt_count_system.cpu.dcache.mem_side::system.mem_ctrls.port       825582                       # Packet count per connected master and slave (bytes)
system.membus.pkt_count_system.cpu.dcache.mem_side::system.acctest.mem2cls.slave      1265722                       # Packet count per connected master and slave (bytes)
system.membus.pkt_count_system.cpu.dcache.mem_side::total      2161120                       # Packet count per connected master and slave (bytes)
system.membus.pkt_count_system.acctest.coherency_bus.master[0]::system.mem_ctrls.port     11228910                       # Packet count per connected master and slave (bytes)
system.membus.pkt_count_system.acctest.coherency_bus.master[0]::total     11228910                       # Packet count per connected master and slave (bytes)
system.membus.pkt_count::total               16261622                       # Packet count per connected master and slave (bytes)
system.membus.pkt_size_system.cpu.icache.mem_side::system.realview.bootmem.port     91890944                       # Cumulative packet size per connected master and slave (bytes)
system.membus.pkt_size_system.cpu.icache.mem_side::total     91890944                       # Cumulative packet size per connected master and slave (bytes)
system.membus.pkt_size_system.cpu.dcache.mem_side::system.realview.bootmem.port       139632                       # Cumulative packet size per connected master and slave (bytes)
system.membus.pkt_size_system.cpu.dcache.mem_side::system.mem_ctrls.port      1607268                       # Cumulative packet size per connected master and slave (bytes)
system.membus.pkt_size_system.cpu.dcache.mem_side::system.acctest.mem2cls.slave       632861                       # Cumulative packet size per connected master and slave (bytes)
system.membus.pkt_size_system.cpu.dcache.mem_side::total      2379761                       # Cumulative packet size per connected master and slave (bytes)
system.membus.pkt_size_system.acctest.coherency_bus.master[0]::system.mem_ctrls.port    187567600                       # Cumulative packet size per connected master and slave (bytes)
system.membus.pkt_size_system.acctest.coherency_bus.master[0]::total    187567600                       # Cumulative packet size per connected master and slave (bytes)
system.membus.pkt_size::total               281838305                       # Cumulative packet size per connected master and slave (bytes)
system.membus.snoops                                0                       # Total snoops (count)
system.membus.snoopTraffic                          0                       # Total snoop traffic (bytes)
system.membus.snoop_fanout::samples           9262514                       # Request fanout histogram
system.membus.snoop_fanout::mean                    0                       # Request fanout histogram
system.membus.snoop_fanout::stdev                   0                       # Request fanout histogram
system.membus.snoop_fanout::underflows              0      0.00%      0.00% # Request fanout histogram
system.membus.snoop_fanout::0                 9262514    100.00%    100.00% # Request fanout histogram
system.membus.snoop_fanout::1                       0      0.00%    100.00% # Request fanout histogram
system.membus.snoop_fanout::2                       0      0.00%    100.00% # Request fanout histogram
system.membus.snoop_fanout::3                       0      0.00%    100.00% # Request fanout histogram
system.membus.snoop_fanout::4                       0      0.00%    100.00% # Request fanout histogram
system.membus.snoop_fanout::overflows               0      0.00%    100.00% # Request fanout histogram
system.membus.snoop_fanout::min_value               0                       # Request fanout histogram
system.membus.snoop_fanout::max_value               0                       # Request fanout histogram
system.membus.snoop_fanout::total             9262514                       # Request fanout histogram
system.membus.reqLayer6.occupancy         13029648875                       # Layer occupancy (ticks)
system.membus.reqLayer6.utilization              12.8                       # Layer utilization (%)
system.membus.reqLayer7.occupancy          1006517250                       # Layer occupancy (ticks)
system.membus.reqLayer7.utilization               1.0                       # Layer utilization (%)
system.membus.reqLayer1.occupancy          2358136472                       # Layer occupancy (ticks)
system.membus.reqLayer1.utilization               2.3                       # Layer utilization (%)
system.membus.badaddr_responder.pwrStateResidencyTicks::UNDEFINED 614361363750                       # Cumulative time (in ticks) in various power states
system.membus.respLayer4.occupancy         1969897125                       # Layer occupancy (ticks)
system.membus.respLayer4.utilization              1.9                       # Layer utilization (%)
system.membus.respLayer7.occupancy        16055539625                       # Layer occupancy (ticks)
system.membus.respLayer7.utilization             15.8                       # Layer utilization (%)
system.membus.respLayer3.occupancy         7178980000                       # Layer occupancy (ticks)
system.membus.respLayer3.utilization              7.0                       # Layer utilization (%)
system.acctest.harris_non_max0_spm.pwrStateResidencyTicks::UNDEFINED 614361363750                       # Cumulative time (in ticks) in various power states
system.acctest.harris_non_max0_spm.bytes_read::.acctest.harris_non_max0.system.acctest.harris_non_max0       262144                       # Number of bytes read from this memory
system.acctest.harris_non_max0_spm.bytes_read::.acctest.harris_non_max0_dma        65536                       # Number of bytes read from this memory
system.acctest.harris_non_max0_spm.bytes_read::total       327680                       # Number of bytes read from this memory
system.acctest.harris_non_max0_spm.bytes_written::.acctest.harris_non_max0.system.acctest.harris_non_max0        65536                       # Number of bytes written to this memory
system.acctest.harris_non_max0_spm.bytes_written::.acctest.harris_non_max0_dma       262144                       # Number of bytes written to this memory
system.acctest.harris_non_max0_spm.bytes_written::total       327680                       # Number of bytes written to this memory
system.acctest.harris_non_max0_spm.num_reads::.acctest.harris_non_max0.system.acctest.harris_non_max0        65536                       # Number of read requests responded to by this memory
system.acctest.harris_non_max0_spm.num_reads::.acctest.harris_non_max0_dma         2048                       # Number of read requests responded to by this memory
system.acctest.harris_non_max0_spm.num_reads::total        67584                       # Number of read requests responded to by this memory
system.acctest.harris_non_max0_spm.num_writes::.acctest.harris_non_max0.system.acctest.harris_non_max0        65536                       # Number of write requests responded to by this memory
system.acctest.harris_non_max0_spm.num_writes::.acctest.harris_non_max0_dma         8192                       # Number of write requests responded to by this memory
system.acctest.harris_non_max0_spm.num_writes::total        73728                       # Number of write requests responded to by this memory
system.acctest.harris_non_max0_spm.bw_read::.acctest.harris_non_max0.system.acctest.harris_non_max0      2574214                       # Total read bandwidth from this memory (bytes/s)
system.acctest.harris_non_max0_spm.bw_read::.acctest.harris_non_max0_dma       643554                       # Total read bandwidth from this memory (bytes/s)
system.acctest.harris_non_max0_spm.bw_read::total      3217768                       # Total read bandwidth from this memory (bytes/s)
system.acctest.harris_non_max0_spm.bw_write::.acctest.harris_non_max0.system.acctest.harris_non_max0       643554                       # Write bandwidth from this memory (bytes/s)
system.acctest.harris_non_max0_spm.bw_write::.acctest.harris_non_max0_dma      2574214                       # Write bandwidth from this memory (bytes/s)
system.acctest.harris_non_max0_spm.bw_write::total      3217768                       # Write bandwidth from this memory (bytes/s)
system.acctest.harris_non_max0_spm.bw_total::.acctest.harris_non_max0.system.acctest.harris_non_max0      3217768                       # Total bandwidth to/from this memory (bytes/s)
system.acctest.harris_non_max0_spm.bw_total::.acctest.harris_non_max0_dma      3217768                       # Total bandwidth to/from this memory (bytes/s)
system.acctest.harris_non_max0_spm.bw_total::total      6435536                       # Total bandwidth to/from this memory (bytes/s)
system.acctest.elem_matrix2_spm.pwrStateResidencyTicks::UNDEFINED 614361363750                       # Cumulative time (in ticks) in various power states
system.acctest.elem_matrix2_spm.bytes_read::.acctest.convolution0_dma        65536                       # Number of bytes read from this memory
system.acctest.elem_matrix2_spm.bytes_read::.acctest.elem_matrix2.system.acctest.elem_matrix2     30670848                       # Number of bytes read from this memory
system.acctest.elem_matrix2_spm.bytes_read::.acctest.elem_matrix2_dma     16646144                       # Number of bytes read from this memory
system.acctest.elem_matrix2_spm.bytes_read::total     47382528                       # Number of bytes read from this memory
system.acctest.elem_matrix2_spm.bytes_written::.acctest.elem_matrix2.system.acctest.elem_matrix2     17498112                       # Number of bytes written to this memory
system.acctest.elem_matrix2_spm.bytes_written::.acctest.elem_matrix2_dma     29556736                       # Number of bytes written to this memory
system.acctest.elem_matrix2_spm.bytes_written::total     47054848                       # Number of bytes written to this memory
system.acctest.elem_matrix2_spm.num_reads::.acctest.convolution0_dma         2048                       # Number of read requests responded to by this memory
system.acctest.elem_matrix2_spm.num_reads::.acctest.elem_matrix2.system.acctest.elem_matrix2      7667712                       # Number of read requests responded to by this memory
system.acctest.elem_matrix2_spm.num_reads::.acctest.elem_matrix2_dma       520192                       # Number of read requests responded to by this memory
system.acctest.elem_matrix2_spm.num_reads::total      8189952                       # Number of read requests responded to by this memory
system.acctest.elem_matrix2_spm.num_writes::.acctest.elem_matrix2.system.acctest.elem_matrix2      4374528                       # Number of write requests responded to by this memory
system.acctest.elem_matrix2_spm.num_writes::.acctest.elem_matrix2_dma       923648                       # Number of write requests responded to by this memory
system.acctest.elem_matrix2_spm.num_writes::total      5298176                       # Number of write requests responded to by this memory
system.acctest.elem_matrix2_spm.bw_read::.acctest.convolution0_dma       643554                       # Total read bandwidth from this memory (bytes/s)
system.acctest.elem_matrix2_spm.bw_read::.acctest.elem_matrix2.system.acctest.elem_matrix2    301183090                       # Total read bandwidth from this memory (bytes/s)
system.acctest.elem_matrix2_spm.bw_read::.acctest.elem_matrix2_dma    163462617                       # Total read bandwidth from this memory (bytes/s)
system.acctest.elem_matrix2_spm.bw_read::total    465289261                       # Total read bandwidth from this memory (bytes/s)
system.acctest.elem_matrix2_spm.bw_write::.acctest.elem_matrix2.system.acctest.elem_matrix2    171828814                       # Write bandwidth from this memory (bytes/s)
system.acctest.elem_matrix2_spm.bw_write::.acctest.elem_matrix2_dma    290242678                       # Write bandwidth from this memory (bytes/s)
system.acctest.elem_matrix2_spm.bw_write::total    462071493                       # Write bandwidth from this memory (bytes/s)
system.acctest.elem_matrix2_spm.bw_total::.acctest.convolution0_dma       643554                       # Total bandwidth to/from this memory (bytes/s)
system.acctest.elem_matrix2_spm.bw_total::.acctest.elem_matrix2.system.acctest.elem_matrix2    473011904                       # Total bandwidth to/from this memory (bytes/s)
system.acctest.elem_matrix2_spm.bw_total::.acctest.elem_matrix2_dma    453705296                       # Total bandwidth to/from this memory (bytes/s)
system.acctest.elem_matrix2_spm.bw_total::total    927360753                       # Total bandwidth to/from this memory (bytes/s)
system.acctest.elem_matrix3_spm.pwrStateResidencyTicks::UNDEFINED 614361363750                       # Cumulative time (in ticks) in various power states
system.acctest.elem_matrix3_spm.bytes_read::.acctest.convolution1_dma        65536                       # Number of bytes read from this memory
system.acctest.elem_matrix3_spm.bytes_read::.acctest.elem_matrix3.system.acctest.elem_matrix3     30670848                       # Number of bytes read from this memory
system.acctest.elem_matrix3_spm.bytes_read::.acctest.elem_matrix3_dma     16646144                       # Number of bytes read from this memory
system.acctest.elem_matrix3_spm.bytes_read::total     47382528                       # Number of bytes read from this memory
system.acctest.elem_matrix3_spm.bytes_written::.acctest.elem_matrix3.system.acctest.elem_matrix3     17498112                       # Number of bytes written to this memory
system.acctest.elem_matrix3_spm.bytes_written::.acctest.elem_matrix3_dma     29556736                       # Number of bytes written to this memory
system.acctest.elem_matrix3_spm.bytes_written::total     47054848                       # Number of bytes written to this memory
system.acctest.elem_matrix3_spm.num_reads::.acctest.convolution1_dma         2048                       # Number of read requests responded to by this memory
system.acctest.elem_matrix3_spm.num_reads::.acctest.elem_matrix3.system.acctest.elem_matrix3      7667712                       # Number of read requests responded to by this memory
system.acctest.elem_matrix3_spm.num_reads::.acctest.elem_matrix3_dma       520192                       # Number of read requests responded to by this memory
system.acctest.elem_matrix3_spm.num_reads::total      8189952                       # Number of read requests responded to by this memory
system.acctest.elem_matrix3_spm.num_writes::.acctest.elem_matrix3.system.acctest.elem_matrix3      4374528                       # Number of write requests responded to by this memory
system.acctest.elem_matrix3_spm.num_writes::.acctest.elem_matrix3_dma       923648                       # Number of write requests responded to by this memory
system.acctest.elem_matrix3_spm.num_writes::total      5298176                       # Number of write requests responded to by this memory
system.acctest.elem_matrix3_spm.bw_read::.acctest.convolution1_dma       643554                       # Total read bandwidth from this memory (bytes/s)
system.acctest.elem_matrix3_spm.bw_read::.acctest.elem_matrix3.system.acctest.elem_matrix3    301183090                       # Total read bandwidth from this memory (bytes/s)
system.acctest.elem_matrix3_spm.bw_read::.acctest.elem_matrix3_dma    163462617                       # Total read bandwidth from this memory (bytes/s)
system.acctest.elem_matrix3_spm.bw_read::total    465289261                       # Total read bandwidth from this memory (bytes/s)
system.acctest.elem_matrix3_spm.bw_write::.acctest.elem_matrix3.system.acctest.elem_matrix3    171828814                       # Write bandwidth from this memory (bytes/s)
system.acctest.elem_matrix3_spm.bw_write::.acctest.elem_matrix3_dma    290242678                       # Write bandwidth from this memory (bytes/s)
system.acctest.elem_matrix3_spm.bw_write::total    462071493                       # Write bandwidth from this memory (bytes/s)
system.acctest.elem_matrix3_spm.bw_total::.acctest.convolution1_dma       643554                       # Total bandwidth to/from this memory (bytes/s)
system.acctest.elem_matrix3_spm.bw_total::.acctest.elem_matrix3.system.acctest.elem_matrix3    473011904                       # Total bandwidth to/from this memory (bytes/s)
system.acctest.elem_matrix3_spm.bw_total::.acctest.elem_matrix3_dma    453705296                       # Total bandwidth to/from this memory (bytes/s)
system.acctest.elem_matrix3_spm.bw_total::total    927360753                       # Total bandwidth to/from this memory (bytes/s)
system.acctest.local_bus.pwrStateResidencyTicks::UNDEFINED 614361363750                       # Cumulative time (in ticks) in various power states
system.acctest.local_bus.trans_dist::ReadReq      2736119                       # Transaction distribution
system.acctest.local_bus.trans_dist::ReadResp      2736119                       # Transaction distribution
system.acctest.local_bus.trans_dist::WriteReq      3897518                       # Transaction distribution
system.acctest.local_bus.trans_dist::WriteResp      3897518                       # Transaction distribution
system.acctest.local_bus.pkt_count_system.acctest.mem2cls.master::system.acctest.canny_non_max0.pio         7116                       # Packet count per connected master and slave (bytes)
system.acctest.local_bus.pkt_count_system.acctest.mem2cls.master::system.acctest.convolution0.pio         8136                       # Packet count per connected master and slave (bytes)
system.acctest.local_bus.pkt_count_system.acctest.mem2cls.master::system.acctest.convolution0_dma.pio         5516                       # Packet count per connected master and slave (bytes)
system.acctest.local_bus.pkt_count_system.acctest.mem2cls.master::system.acctest.convolution1.pio         8116                       # Packet count per connected master and slave (bytes)
system.acctest.local_bus.pkt_count_system.acctest.mem2cls.master::system.acctest.convolution1_dma.pio         5396                       # Packet count per connected master and slave (bytes)
system.acctest.local_bus.pkt_count_system.acctest.mem2cls.master::system.acctest.edge_tracking0.pio         7076                       # Packet count per connected master and slave (bytes)
system.acctest.local_bus.pkt_count_system.acctest.mem2cls.master::system.acctest.elem_matrix0.pio        28166                       # Packet count per connected master and slave (bytes)
system.acctest.local_bus.pkt_count_system.acctest.mem2cls.master::system.acctest.elem_matrix0_dma.pio       277688                       # Packet count per connected master and slave (bytes)
system.acctest.local_bus.pkt_count_system.acctest.mem2cls.master::system.acctest.elem_matrix1.pio        27004                       # Packet count per connected master and slave (bytes)
system.acctest.local_bus.pkt_count_system.acctest.mem2cls.master::system.acctest.elem_matrix1_dma.pio       277734                       # Packet count per connected master and slave (bytes)
system.acctest.local_bus.pkt_count_system.acctest.mem2cls.master::system.acctest.elem_matrix2.pio        25710                       # Packet count per connected master and slave (bytes)
system.acctest.local_bus.pkt_count_system.acctest.mem2cls.master::system.acctest.elem_matrix2_dma.pio       271856                       # Packet count per connected master and slave (bytes)
system.acctest.local_bus.pkt_count_system.acctest.mem2cls.master::system.acctest.elem_matrix3.pio        25176                       # Packet count per connected master and slave (bytes)
system.acctest.local_bus.pkt_count_system.acctest.mem2cls.master::system.acctest.elem_matrix3_dma.pio       272004                       # Packet count per connected master and slave (bytes)
system.acctest.local_bus.pkt_count_system.acctest.mem2cls.master::system.acctest.grayscale0.pio         5028                       # Packet count per connected master and slave (bytes)
system.acctest.local_bus.pkt_count_system.acctest.mem2cls.master::system.acctest.grayscale0_dma.pio         1402                       # Packet count per connected master and slave (bytes)
system.acctest.local_bus.pkt_count_system.acctest.mem2cls.master::system.acctest.harris_non_max0.pio         5084                       # Packet count per connected master and slave (bytes)
system.acctest.local_bus.pkt_count_system.acctest.mem2cls.master::system.acctest.harris_non_max0_dma.pio         1736                       # Packet count per connected master and slave (bytes)
system.acctest.local_bus.pkt_count_system.acctest.mem2cls.master::system.acctest.isp0.pio         5076                       # Packet count per connected master and slave (bytes)
system.acctest.local_bus.pkt_count_system.acctest.mem2cls.master::system.acctest.isp0_dma.pio          702                       # Packet count per connected master and slave (bytes)
system.acctest.local_bus.pkt_count_system.acctest.mem2cls.master::total      1265722                       # Packet count per connected master and slave (bytes)
system.acctest.local_bus.pkt_count_system.acctest.convolution0_dma.dma::system.acctest.convolution0_spm.port        57408                       # Packet count per connected master and slave (bytes)
system.acctest.local_bus.pkt_count_system.acctest.convolution0_dma.dma::system.acctest.elem_matrix0_spm.port         4096                       # Packet count per connected master and slave (bytes)
system.acctest.local_bus.pkt_count_system.acctest.convolution0_dma.dma::system.acctest.elem_matrix2_spm.port         4096                       # Packet count per connected master and slave (bytes)
system.acctest.local_bus.pkt_count_system.acctest.convolution0_dma.dma::system.acctest.grayscale0_spm.port         8192                       # Packet count per connected master and slave (bytes)
system.acctest.local_bus.pkt_count_system.acctest.convolution0_dma.dma::total        73792                       # Packet count per connected master and slave (bytes)
system.acctest.local_bus.pkt_count_system.acctest.convolution1_dma.dma::system.acctest.convolution1_spm.port        57408                       # Packet count per connected master and slave (bytes)
system.acctest.local_bus.pkt_count_system.acctest.convolution1_dma.dma::system.acctest.elem_matrix1_spm.port         4096                       # Packet count per connected master and slave (bytes)
system.acctest.local_bus.pkt_count_system.acctest.convolution1_dma.dma::system.acctest.elem_matrix3_spm.port         4096                       # Packet count per connected master and slave (bytes)
system.acctest.local_bus.pkt_count_system.acctest.convolution1_dma.dma::system.acctest.grayscale0_spm.port         8192                       # Packet count per connected master and slave (bytes)
system.acctest.local_bus.pkt_count_system.acctest.convolution1_dma.dma::total        73792                       # Packet count per connected master and slave (bytes)
system.acctest.local_bus.pkt_count_system.acctest.elem_matrix0_dma.dma::system.acctest.convolution0_spm.port        24576                       # Packet count per connected master and slave (bytes)
system.acctest.local_bus.pkt_count_system.acctest.elem_matrix0_dma.dma::system.acctest.convolution1_spm.port        16384                       # Packet count per connected master and slave (bytes)
system.acctest.local_bus.pkt_count_system.acctest.elem_matrix0_dma.dma::system.acctest.elem_matrix0_spm.port      2961416                       # Packet count per connected master and slave (bytes)
system.acctest.local_bus.pkt_count_system.acctest.elem_matrix0_dma.dma::total      3002376                       # Packet count per connected master and slave (bytes)
system.acctest.local_bus.pkt_count_system.acctest.elem_matrix1_dma.dma::system.acctest.convolution0_spm.port        16384                       # Packet count per connected master and slave (bytes)
system.acctest.local_bus.pkt_count_system.acctest.elem_matrix1_dma.dma::system.acctest.convolution1_spm.port        24576                       # Packet count per connected master and slave (bytes)
system.acctest.local_bus.pkt_count_system.acctest.elem_matrix1_dma.dma::system.acctest.elem_matrix1_spm.port      2965504                       # Packet count per connected master and slave (bytes)
system.acctest.local_bus.pkt_count_system.acctest.elem_matrix1_dma.dma::total      3006464                       # Packet count per connected master and slave (bytes)
system.acctest.local_bus.pkt_count_system.acctest.elem_matrix2_dma.dma::system.acctest.elem_matrix2_spm.port      2887680                       # Packet count per connected master and slave (bytes)
system.acctest.local_bus.pkt_count_system.acctest.elem_matrix2_dma.dma::total      2887680                       # Packet count per connected master and slave (bytes)
system.acctest.local_bus.pkt_count_system.acctest.elem_matrix3_dma.dma::system.acctest.elem_matrix3_spm.port      2887680                       # Packet count per connected master and slave (bytes)
system.acctest.local_bus.pkt_count_system.acctest.elem_matrix3_dma.dma::total      2887680                       # Packet count per connected master and slave (bytes)
system.acctest.local_bus.pkt_count_system.acctest.grayscale0_dma.dma::system.acctest.grayscale0_spm.port        20480                       # Packet count per connected master and slave (bytes)
system.acctest.local_bus.pkt_count_system.acctest.grayscale0_dma.dma::system.acctest.isp0_spm.port        12288                       # Packet count per connected master and slave (bytes)
system.acctest.local_bus.pkt_count_system.acctest.grayscale0_dma.dma::total        32768                       # Packet count per connected master and slave (bytes)
system.acctest.local_bus.pkt_count_system.acctest.harris_non_max0_dma.dma::system.acctest.elem_matrix0_spm.port         8192                       # Packet count per connected master and slave (bytes)
system.acctest.local_bus.pkt_count_system.acctest.harris_non_max0_dma.dma::system.acctest.elem_matrix1_spm.port         4096                       # Packet count per connected master and slave (bytes)
system.acctest.local_bus.pkt_count_system.acctest.harris_non_max0_dma.dma::system.acctest.harris_non_max0_spm.port        20480                       # Packet count per connected master and slave (bytes)
system.acctest.local_bus.pkt_count_system.acctest.harris_non_max0_dma.dma::total        32768                       # Packet count per connected master and slave (bytes)
system.acctest.local_bus.pkt_count_system.acctest.isp0_dma.dma::system.acctest.isp0_spm.port         4232                       # Packet count per connected master and slave (bytes)
system.acctest.local_bus.pkt_count_system.acctest.isp0_dma.dma::total         4232                       # Packet count per connected master and slave (bytes)
system.acctest.local_bus.pkt_count::total     13267274                       # Packet count per connected master and slave (bytes)
system.acctest.local_bus.pkt_size_system.acctest.mem2cls.master::system.acctest.canny_non_max0.pio         3558                       # Cumulative packet size per connected master and slave (bytes)
system.acctest.local_bus.pkt_size_system.acctest.mem2cls.master::system.acctest.convolution0.pio         4068                       # Cumulative packet size per connected master and slave (bytes)
system.acctest.local_bus.pkt_size_system.acctest.mem2cls.master::system.acctest.convolution0_dma.pio         2758                       # Cumulative packet size per connected master and slave (bytes)
system.acctest.local_bus.pkt_size_system.acctest.mem2cls.master::system.acctest.convolution1.pio         4058                       # Cumulative packet size per connected master and slave (bytes)
system.acctest.local_bus.pkt_size_system.acctest.mem2cls.master::system.acctest.convolution1_dma.pio         2698                       # Cumulative packet size per connected master and slave (bytes)
system.acctest.local_bus.pkt_size_system.acctest.mem2cls.master::system.acctest.edge_tracking0.pio         3538                       # Cumulative packet size per connected master and slave (bytes)
system.acctest.local_bus.pkt_size_system.acctest.mem2cls.master::system.acctest.elem_matrix0.pio        14083                       # Cumulative packet size per connected master and slave (bytes)
system.acctest.local_bus.pkt_size_system.acctest.mem2cls.master::system.acctest.elem_matrix0_dma.pio       138844                       # Cumulative packet size per connected master and slave (bytes)
system.acctest.local_bus.pkt_size_system.acctest.mem2cls.master::system.acctest.elem_matrix1.pio        13502                       # Cumulative packet size per connected master and slave (bytes)
system.acctest.local_bus.pkt_size_system.acctest.mem2cls.master::system.acctest.elem_matrix1_dma.pio       138867                       # Cumulative packet size per connected master and slave (bytes)
system.acctest.local_bus.pkt_size_system.acctest.mem2cls.master::system.acctest.elem_matrix2.pio        12855                       # Cumulative packet size per connected master and slave (bytes)
system.acctest.local_bus.pkt_size_system.acctest.mem2cls.master::system.acctest.elem_matrix2_dma.pio       135928                       # Cumulative packet size per connected master and slave (bytes)
system.acctest.local_bus.pkt_size_system.acctest.mem2cls.master::system.acctest.elem_matrix3.pio        12588                       # Cumulative packet size per connected master and slave (bytes)
system.acctest.local_bus.pkt_size_system.acctest.mem2cls.master::system.acctest.elem_matrix3_dma.pio       136002                       # Cumulative packet size per connected master and slave (bytes)
system.acctest.local_bus.pkt_size_system.acctest.mem2cls.master::system.acctest.grayscale0.pio         2514                       # Cumulative packet size per connected master and slave (bytes)
system.acctest.local_bus.pkt_size_system.acctest.mem2cls.master::system.acctest.grayscale0_dma.pio          701                       # Cumulative packet size per connected master and slave (bytes)
system.acctest.local_bus.pkt_size_system.acctest.mem2cls.master::system.acctest.harris_non_max0.pio         2542                       # Cumulative packet size per connected master and slave (bytes)
system.acctest.local_bus.pkt_size_system.acctest.mem2cls.master::system.acctest.harris_non_max0_dma.pio          868                       # Cumulative packet size per connected master and slave (bytes)
system.acctest.local_bus.pkt_size_system.acctest.mem2cls.master::system.acctest.isp0.pio         2538                       # Cumulative packet size per connected master and slave (bytes)
system.acctest.local_bus.pkt_size_system.acctest.mem2cls.master::system.acctest.isp0_dma.pio          351                       # Cumulative packet size per connected master and slave (bytes)
system.acctest.local_bus.pkt_size_system.acctest.mem2cls.master::total       632861                       # Cumulative packet size per connected master and slave (bytes)
system.acctest.local_bus.pkt_size_system.acctest.convolution0_dma.dma::system.acctest.convolution0_spm.port       918248                       # Cumulative packet size per connected master and slave (bytes)
system.acctest.local_bus.pkt_size_system.acctest.convolution0_dma.dma::system.acctest.elem_matrix0_spm.port        65536                       # Cumulative packet size per connected master and slave (bytes)
system.acctest.local_bus.pkt_size_system.acctest.convolution0_dma.dma::system.acctest.elem_matrix2_spm.port        65536                       # Cumulative packet size per connected master and slave (bytes)
system.acctest.local_bus.pkt_size_system.acctest.convolution0_dma.dma::system.acctest.grayscale0_spm.port       131072                       # Cumulative packet size per connected master and slave (bytes)
system.acctest.local_bus.pkt_size_system.acctest.convolution0_dma.dma::total      1180392                       # Cumulative packet size per connected master and slave (bytes)
system.acctest.local_bus.pkt_size_system.acctest.convolution1_dma.dma::system.acctest.convolution1_spm.port       918248                       # Cumulative packet size per connected master and slave (bytes)
system.acctest.local_bus.pkt_size_system.acctest.convolution1_dma.dma::system.acctest.elem_matrix1_spm.port        65536                       # Cumulative packet size per connected master and slave (bytes)
system.acctest.local_bus.pkt_size_system.acctest.convolution1_dma.dma::system.acctest.elem_matrix3_spm.port        65536                       # Cumulative packet size per connected master and slave (bytes)
system.acctest.local_bus.pkt_size_system.acctest.convolution1_dma.dma::system.acctest.grayscale0_spm.port       131072                       # Cumulative packet size per connected master and slave (bytes)
system.acctest.local_bus.pkt_size_system.acctest.convolution1_dma.dma::total      1180392                       # Cumulative packet size per connected master and slave (bytes)
system.acctest.local_bus.pkt_size_system.acctest.elem_matrix0_dma.dma::system.acctest.convolution0_spm.port       393216                       # Cumulative packet size per connected master and slave (bytes)
system.acctest.local_bus.pkt_size_system.acctest.elem_matrix0_dma.dma::system.acctest.convolution1_spm.port       262144                       # Cumulative packet size per connected master and slave (bytes)
system.acctest.local_bus.pkt_size_system.acctest.elem_matrix0_dma.dma::system.acctest.elem_matrix0_spm.port     47382544                       # Cumulative packet size per connected master and slave (bytes)
system.acctest.local_bus.pkt_size_system.acctest.elem_matrix0_dma.dma::total     48037904                       # Cumulative packet size per connected master and slave (bytes)
system.acctest.local_bus.pkt_size_system.acctest.elem_matrix1_dma.dma::system.acctest.convolution0_spm.port       262144                       # Cumulative packet size per connected master and slave (bytes)
system.acctest.local_bus.pkt_size_system.acctest.elem_matrix1_dma.dma::system.acctest.convolution1_spm.port       393216                       # Cumulative packet size per connected master and slave (bytes)
system.acctest.local_bus.pkt_size_system.acctest.elem_matrix1_dma.dma::system.acctest.elem_matrix1_spm.port     47448064                       # Cumulative packet size per connected master and slave (bytes)
system.acctest.local_bus.pkt_size_system.acctest.elem_matrix1_dma.dma::total     48103424                       # Cumulative packet size per connected master and slave (bytes)
system.acctest.local_bus.pkt_size_system.acctest.elem_matrix2_dma.dma::system.acctest.elem_matrix2_spm.port     46202880                       # Cumulative packet size per connected master and slave (bytes)
system.acctest.local_bus.pkt_size_system.acctest.elem_matrix2_dma.dma::total     46202880                       # Cumulative packet size per connected master and slave (bytes)
system.acctest.local_bus.pkt_size_system.acctest.elem_matrix3_dma.dma::system.acctest.elem_matrix3_spm.port     46202880                       # Cumulative packet size per connected master and slave (bytes)
system.acctest.local_bus.pkt_size_system.acctest.elem_matrix3_dma.dma::total     46202880                       # Cumulative packet size per connected master and slave (bytes)
system.acctest.local_bus.pkt_size_system.acctest.grayscale0_dma.dma::system.acctest.grayscale0_spm.port       327680                       # Cumulative packet size per connected master and slave (bytes)
system.acctest.local_bus.pkt_size_system.acctest.grayscale0_dma.dma::system.acctest.isp0_spm.port       196608                       # Cumulative packet size per connected master and slave (bytes)
system.acctest.local_bus.pkt_size_system.acctest.grayscale0_dma.dma::total       524288                       # Cumulative packet size per connected master and slave (bytes)
system.acctest.local_bus.pkt_size_system.acctest.harris_non_max0_dma.dma::system.acctest.elem_matrix0_spm.port       131072                       # Cumulative packet size per connected master and slave (bytes)
system.acctest.local_bus.pkt_size_system.acctest.harris_non_max0_dma.dma::system.acctest.elem_matrix1_spm.port        65536                       # Cumulative packet size per connected master and slave (bytes)
system.acctest.local_bus.pkt_size_system.acctest.harris_non_max0_dma.dma::system.acctest.harris_non_max0_spm.port       327680                       # Cumulative packet size per connected master and slave (bytes)
system.acctest.local_bus.pkt_size_system.acctest.harris_non_max0_dma.dma::total       524288                       # Cumulative packet size per connected master and slave (bytes)
system.acctest.local_bus.pkt_size_system.acctest.isp0_dma.dma::system.acctest.isp0_spm.port        67600                       # Cumulative packet size per connected master and slave (bytes)
system.acctest.local_bus.pkt_size_system.acctest.isp0_dma.dma::total        67600                       # Cumulative packet size per connected master and slave (bytes)
system.acctest.local_bus.pkt_size::total    192656909                       # Cumulative packet size per connected master and slave (bytes)
system.acctest.local_bus.respLayer18.occupancy     39936000                       # Layer occupancy (ticks)
system.acctest.local_bus.respLayer18.utilization          0.0                       # Layer utilization (%)
system.acctest.local_bus.respLayer10.occupancy   2598916000                       # Layer occupancy (ticks)
system.acctest.local_bus.respLayer10.utilization          2.6                       # Layer utilization (%)
system.acctest.local_bus.respLayer12.occupancy   2605056000                       # Layer occupancy (ticks)
system.acctest.local_bus.respLayer12.utilization          2.6                       # Layer utilization (%)
system.acctest.local_bus.respLayer14.occupancy   2484224000                       # Layer occupancy (ticks)
system.acctest.local_bus.respLayer14.utilization          2.4                       # Layer utilization (%)
system.acctest.local_bus.respLayer16.occupancy   2484224000                       # Layer occupancy (ticks)
system.acctest.local_bus.respLayer16.utilization          2.4                       # Layer utilization (%)
system.acctest.local_bus.reqLayer4.occupancy    119114523                       # Layer occupancy (ticks)
system.acctest.local_bus.reqLayer4.utilization          0.1                       # Layer utilization (%)
system.acctest.local_bus.reqLayer5.occupancy      4415750                       # Layer occupancy (ticks)
system.acctest.local_bus.reqLayer5.utilization          0.0                       # Layer utilization (%)
system.acctest.local_bus.reqLayer6.occupancy      6449125                       # Layer occupancy (ticks)
system.acctest.local_bus.reqLayer6.utilization          0.0                       # Layer utilization (%)
system.acctest.local_bus.reqLayer7.occupancy    121255353                       # Layer occupancy (ticks)
system.acctest.local_bus.reqLayer7.utilization          0.1                       # Layer utilization (%)
system.acctest.local_bus.reqLayer0.occupancy      5324000                       # Layer occupancy (ticks)
system.acctest.local_bus.reqLayer0.utilization          0.0                       # Layer utilization (%)
system.acctest.local_bus.reqLayer3.occupancy      6505500                       # Layer occupancy (ticks)
system.acctest.local_bus.reqLayer3.utilization          0.0                       # Layer utilization (%)
system.acctest.local_bus.reqLayer8.occupancy      4341250                       # Layer occupancy (ticks)
system.acctest.local_bus.reqLayer8.utilization          0.0                       # Layer utilization (%)
system.acctest.local_bus.reqLayer9.occupancy      6564750                       # Layer occupancy (ticks)
system.acctest.local_bus.reqLayer9.utilization          0.0                       # Layer utilization (%)
system.acctest.local_bus.reqLayer30.occupancy      4509500                       # Layer occupancy (ticks)
system.acctest.local_bus.reqLayer30.utilization          0.0                       # Layer utilization (%)
system.acctest.local_bus.reqLayer31.occupancy     18046840                       # Layer occupancy (ticks)
system.acctest.local_bus.reqLayer31.utilization          0.0                       # Layer utilization (%)
system.acctest.local_bus.reqLayer32.occupancy       593875                       # Layer occupancy (ticks)
system.acctest.local_bus.reqLayer32.utilization          0.0                       # Layer utilization (%)
system.acctest.local_bus.reqLayer18.occupancy     25219750                       # Layer occupancy (ticks)
system.acctest.local_bus.reqLayer18.utilization          0.0                       # Layer utilization (%)
system.acctest.local_bus.reqLayer19.occupancy   3870174558                       # Layer occupancy (ticks)
system.acctest.local_bus.reqLayer19.utilization          3.8                       # Layer utilization (%)
system.acctest.local_bus.reqLayer16.occupancy   3973930821                       # Layer occupancy (ticks)
system.acctest.local_bus.reqLayer16.utilization          3.9                       # Layer utilization (%)
system.acctest.local_bus.reqLayer17.occupancy    207740625                       # Layer occupancy (ticks)
system.acctest.local_bus.reqLayer17.utilization          0.2                       # Layer utilization (%)
system.acctest.local_bus.reqLayer14.occupancy    207807750                       # Layer occupancy (ticks)
system.acctest.local_bus.reqLayer14.utilization          0.2                       # Layer utilization (%)
system.acctest.local_bus.reqLayer15.occupancy     26195375                       # Layer occupancy (ticks)
system.acctest.local_bus.reqLayer15.utilization          0.0                       # Layer utilization (%)
system.acctest.local_bus.reqLayer12.occupancy     27779250                       # Layer occupancy (ticks)
system.acctest.local_bus.reqLayer12.utilization          0.0                       # Layer utilization (%)
system.acctest.local_bus.reqLayer13.occupancy   3970877349                       # Layer occupancy (ticks)
system.acctest.local_bus.reqLayer13.utilization          3.9                       # Layer utilization (%)
system.acctest.local_bus.respLayer20.occupancy     32768000                       # Layer occupancy (ticks)
system.acctest.local_bus.respLayer20.utilization          0.0                       # Layer utilization (%)
system.acctest.local_bus.respLayer22.occupancy      2116000                       # Layer occupancy (ticks)
system.acctest.local_bus.respLayer22.utilization          0.0                       # Layer utilization (%)
system.acctest.local_bus.respLayer4.occupancy     69664000                       # Layer occupancy (ticks)
system.acctest.local_bus.respLayer4.utilization          0.1                       # Layer utilization (%)
system.acctest.local_bus.respLayer6.occupancy     69664000                       # Layer occupancy (ticks)
system.acctest.local_bus.respLayer6.utilization          0.1                       # Layer utilization (%)
system.acctest.local_bus.respLayer0.occupancy   1177620000                       # Layer occupancy (ticks)
system.acctest.local_bus.respLayer0.utilization          1.2                       # Layer utilization (%)
system.acctest.local_bus.reqLayer27.occupancy      4476000                       # Layer occupancy (ticks)
system.acctest.local_bus.reqLayer27.utilization          0.0                       # Layer utilization (%)
system.acctest.local_bus.reqLayer26.occupancy      1102750                       # Layer occupancy (ticks)
system.acctest.local_bus.reqLayer26.utilization          0.0                       # Layer utilization (%)
system.acctest.local_bus.reqLayer25.occupancy     42796564                       # Layer occupancy (ticks)
system.acctest.local_bus.reqLayer25.utilization          0.0                       # Layer utilization (%)
system.acctest.local_bus.reqLayer24.occupancy      4479750                       # Layer occupancy (ticks)
system.acctest.local_bus.reqLayer24.utilization          0.0                       # Layer utilization (%)
system.acctest.local_bus.reqLayer23.occupancy    203322500                       # Layer occupancy (ticks)
system.acctest.local_bus.reqLayer23.utilization          0.2                       # Layer utilization (%)
system.acctest.local_bus.reqLayer22.occupancy   3864670558                       # Layer occupancy (ticks)
system.acctest.local_bus.reqLayer22.utilization          3.8                       # Layer utilization (%)
system.acctest.local_bus.reqLayer21.occupancy     24858375                       # Layer occupancy (ticks)
system.acctest.local_bus.reqLayer21.utilization          0.0                       # Layer utilization (%)
system.acctest.local_bus.reqLayer20.occupancy    203240750                       # Layer occupancy (ticks)
system.acctest.local_bus.reqLayer20.utilization          0.2                       # Layer utilization (%)
system.acctest.local_bus.reqLayer29.occupancy      1405125                       # Layer occupancy (ticks)
system.acctest.local_bus.reqLayer29.utilization          0.0                       # Layer utilization (%)
system.acctest.local_bus.reqLayer28.occupancy     28468849                       # Layer occupancy (ticks)
system.acctest.local_bus.reqLayer28.utilization          0.0                       # Layer utilization (%)
system.acctest.isp0.pwrStateResidencyTicks::UNDEFINED 614361363750                       # Cumulative time (in ticks) in various power states
system.acctest.edge_tracking0.pwrStateResidencyTicks::UNDEFINED 614361363750                       # Cumulative time (in ticks) in various power states
system.acctest.grayscale0_spm.pwrStateResidencyTicks::UNDEFINED 614361363750                       # Cumulative time (in ticks) in various power states
system.acctest.grayscale0_spm.bytes_read::.acctest.convolution0_dma       131072                       # Number of bytes read from this memory
system.acctest.grayscale0_spm.bytes_read::.acctest.convolution1_dma       131072                       # Number of bytes read from this memory
system.acctest.grayscale0_spm.bytes_read::.acctest.grayscale0.system.acctest.grayscale0       196608                       # Number of bytes read from this memory
system.acctest.grayscale0_spm.bytes_read::.acctest.grayscale0_dma       131072                       # Number of bytes read from this memory
system.acctest.grayscale0_spm.bytes_read::total       589824                       # Number of bytes read from this memory
system.acctest.grayscale0_spm.bytes_written::.acctest.grayscale0.system.acctest.grayscale0       262144                       # Number of bytes written to this memory
system.acctest.grayscale0_spm.bytes_written::.acctest.grayscale0_dma       196608                       # Number of bytes written to this memory
system.acctest.grayscale0_spm.bytes_written::total       458752                       # Number of bytes written to this memory
system.acctest.grayscale0_spm.num_reads::.acctest.convolution0_dma         4096                       # Number of read requests responded to by this memory
system.acctest.grayscale0_spm.num_reads::.acctest.convolution1_dma         4096                       # Number of read requests responded to by this memory
system.acctest.grayscale0_spm.num_reads::.acctest.grayscale0.system.acctest.grayscale0       196608                       # Number of read requests responded to by this memory
system.acctest.grayscale0_spm.num_reads::.acctest.grayscale0_dma         4096                       # Number of read requests responded to by this memory
system.acctest.grayscale0_spm.num_reads::total       208896                       # Number of read requests responded to by this memory
system.acctest.grayscale0_spm.num_writes::.acctest.grayscale0.system.acctest.grayscale0        65536                       # Number of write requests responded to by this memory
system.acctest.grayscale0_spm.num_writes::.acctest.grayscale0_dma         6144                       # Number of write requests responded to by this memory
system.acctest.grayscale0_spm.num_writes::total        71680                       # Number of write requests responded to by this memory
system.acctest.grayscale0_spm.bw_read::.acctest.convolution0_dma      1287107                       # Total read bandwidth from this memory (bytes/s)
[...]
system.mem_ctrls.masterReadRate::.cpu.data 10694067.264209438115                       # Per-master bytes read from memory rate (Bytes/sec)
system.mem_ctrls.masterWriteRate::.acctest.convolution0_dma 2092006.477275875630                       # Per-master bytes write to memory rate (Bytes/sec)
system.mem_ctrls.masterWriteRate::.acctest.convolution1_dma 2091849.360754863359                       # Per-master bytes write to memory rate (Bytes/sec)
system.mem_ctrls.masterWriteRate::.acctest.elem_matrix0_dma 133047958.995632156730                       # Per-master bytes write to memory rate (Bytes/sec)
system.mem_ctrls.masterWriteRate::.acctest.elem_matrix1_dma 133773523.089665949345                       # Per-master bytes write to memory rate (Bytes/sec)
system.mem_ctrls.masterWriteRate::.acctest.elem_matrix2_dma 131116289.928049102426                       # Per-master bytes write to memory rate (Bytes/sec)
system.mem_ctrls.masterWriteRate::.acctest.elem_matrix3_dma 131120178.561944156885                       # Per-master bytes write to memory rate (Bytes/sec)
system.mem_ctrls.masterWriteRate::.acctest.grayscale0_dma 1046003.238637937815                       # Per-master bytes write to memory rate (Bytes/sec)
system.mem_ctrls.masterWriteRate::.acctest.harris_non_max0_dma 519505.776726450073                       # Per-master bytes write to memory rate (Bytes/sec)
system.mem_ctrls.masterWriteRate::.cpu.data 550840.702885797247                       # Per-master bytes write to memory rate (Bytes/sec)
system.mem_ctrls.masterReadAccesses::.acctest.convolution0_dma        16421                       # Per-master read serviced memory accesses
system.mem_ctrls.masterReadAccesses::.acctest.convolution1_dma        15396                       # Per-master read serviced memory accesses
system.mem_ctrls.masterReadAccesses::.acctest.elem_matrix0_dma      1327108                       # Per-master read serviced memory accesses
system.mem_ctrls.masterReadAccesses::.acctest.elem_matrix1_dma      1327104                       # Per-master read serviced memory accesses
system.mem_ctrls.masterReadAccesses::.acctest.elem_matrix2_dma      1314816                       # Per-master read serviced memory accesses
system.mem_ctrls.masterReadAccesses::.acctest.elem_matrix3_dma      1316864                       # Per-master read serviced memory accesses
system.mem_ctrls.masterReadAccesses::.acctest.harris_non_max0_dma         3072                       # Per-master read serviced memory accesses
system.mem_ctrls.masterReadAccesses::.acctest.isp0_dma         2908                       # Per-master read serviced memory accesses
system.mem_ctrls.masterReadAccesses::.cpu.data       308755                       # Per-master read serviced memory accesses
system.mem_ctrls.masterWriteAccesses::.acctest.convolution0_dma        11264                       # Per-master write serviced memory accesses
system.mem_ctrls.masterWriteAccesses::.acctest.convolution1_dma        11264                       # Per-master write serviced memory accesses
system.mem_ctrls.masterWriteAccesses::.acctest.elem_matrix0_dma       739328                       # Per-master write serviced memory accesses
system.mem_ctrls.masterWriteAccesses::.acctest.elem_matrix1_dma       741376                       # Per-master write serviced memory accesses
system.mem_ctrls.masterWriteAccesses::.acctest.elem_matrix2_dma       727040                       # Per-master write serviced memory accesses
system.mem_ctrls.masterWriteAccesses::.acctest.elem_matrix3_dma       727040                       # Per-master write serviced memory accesses
system.mem_ctrls.masterWriteAccesses::.acctest.grayscale0_dma         5120                       # Per-master write serviced memory accesses
system.mem_ctrls.masterWriteAccesses::.acctest.harris_non_max0_dma         2816                       # Per-master write serviced memory accesses
system.mem_ctrls.masterWriteAccesses::.cpu.data       106181                       # Per-master write serviced memory accesses
system.mem_ctrls.masterReadTotalLat::.acctest.convolution0_dma   1939374875                       # Per-master read total memory access latency
system.mem_ctrls.masterReadTotalLat::.acctest.convolution1_dma   1681324500                       # Per-master read total memory access latency
system.mem_ctrls.masterReadTotalLat::.acctest.elem_matrix0_dma 167963170250                       # Per-master read total memory access latency
system.mem_ctrls.masterReadTotalLat::.acctest.elem_matrix1_dma 168023520625                       # Per-master read total memory access latency
system.mem_ctrls.masterReadTotalLat::.acctest.elem_matrix2_dma 166157540500                       # Per-master read total memory access latency
system.mem_ctrls.masterReadTotalLat::.acctest.elem_matrix3_dma 166685904750                       # Per-master read total memory access latency
system.mem_ctrls.masterReadTotalLat::.acctest.harris_non_max0_dma    401893625                       # Per-master read total memory access latency
system.mem_ctrls.masterReadTotalLat::.acctest.isp0_dma    350619000                       # Per-master read total memory access latency
system.mem_ctrls.masterReadTotalLat::.cpu.data   8525819125                       # Per-master read total memory access latency
system.mem_ctrls.masterWriteTotalLat::.acctest.convolution0_dma   5824912750                       # Per-master write total memory access latency
system.mem_ctrls.masterWriteTotalLat::.acctest.convolution1_dma   5794670000                       # Per-master write total memory access latency
system.mem_ctrls.masterWriteTotalLat::.acctest.elem_matrix0_dma 561337112500                       # Per-master write total memory access latency
system.mem_ctrls.masterWriteTotalLat::.acctest.elem_matrix1_dma 510489442250                       # Per-master write total memory access latency
system.mem_ctrls.masterWriteTotalLat::.acctest.elem_matrix2_dma 501775399500                       # Per-master write total memory access latency
system.mem_ctrls.masterWriteTotalLat::.acctest.elem_matrix3_dma 575753072375                       # Per-master write total memory access latency
system.mem_ctrls.masterWriteTotalLat::.acctest.grayscale0_dma   2436387625                       # Per-master write total memory access latency
system.mem_ctrls.masterWriteTotalLat::.acctest.harris_non_max0_dma  36418638750                       # Per-master write total memory access latency
system.mem_ctrls.masterWriteTotalLat::.cpu.data 892841499375                       # Per-master write total memory access latency
system.mem_ctrls.masterReadAvgLat::.acctest.convolution0_dma    118103.34                       # Per-master read average memory access latency
system.mem_ctrls.masterReadAvgLat::.acctest.convolution1_dma    109205.28                       # Per-master read average memory access latency
system.mem_ctrls.masterReadAvgLat::.acctest.elem_matrix0_dma    126563.30                       # Per-master read average memory access latency
system.mem_ctrls.masterReadAvgLat::.acctest.elem_matrix1_dma    126609.16                       # Per-master read average memory access latency
system.mem_ctrls.masterReadAvgLat::.acctest.elem_matrix2_dma    126373.23                       # Per-master read average memory access latency
system.mem_ctrls.masterReadAvgLat::.acctest.elem_matrix3_dma    126577.92                       # Per-master read average memory access latency
system.mem_ctrls.masterReadAvgLat::.acctest.harris_non_max0_dma    130824.75                       # Per-master read average memory access latency
system.mem_ctrls.masterReadAvgLat::.acctest.isp0_dma    120570.50                       # Per-master read average memory access latency
system.mem_ctrls.masterReadAvgLat::.cpu.data     27613.54                       # Per-master read average memory access latency
system.mem_ctrls.masterWriteAvgLat::.acctest.convolution0_dma    517126.49                       # Per-master write average memory access latency
system.mem_ctrls.masterWriteAvgLat::.acctest.convolution1_dma    514441.58                       # Per-master write average memory access latency
system.mem_ctrls.masterWriteAvgLat::.acctest.elem_matrix0_dma    759253.15                       # Per-master write average memory access latency
system.mem_ctrls.masterWriteAvgLat::.acctest.elem_matrix1_dma    688570.23                       # Per-master write average memory access latency
system.mem_ctrls.masterWriteAvgLat::.acctest.elem_matrix2_dma    690162.03                       # Per-master write average memory access latency
system.mem_ctrls.masterWriteAvgLat::.acctest.elem_matrix3_dma    791913.89                       # Per-master write average memory access latency
system.mem_ctrls.masterWriteAvgLat::.acctest.grayscale0_dma    475856.96                       # Per-master write average memory access latency
system.mem_ctrls.masterWriteAvgLat::.acctest.harris_non_max0_dma  12932755.24                       # Per-master write average memory access latency
system.mem_ctrls.masterWriteAvgLat::.cpu.data   8408674.80                       # Per-master write average memory access latency
system.mem_ctrls.pageHitRate                    92.71                       # Row buffer hit rate, read and write combined
system.mem_ctrls.rank0.actEnergy           1007894895                       # Energy for activate commands per rank (pJ)
system.mem_ctrls.rank0.preEnergy         531218956.799968                       # Energy for precharge commands per rank (pJ)
system.mem_ctrls.rank0.readEnergy          6590451000                       # Energy for read commands per rank (pJ)
system.mem_ctrls.rank0.writeEnergy         2000985480                       # Energy for write commands per rank (pJ)
system.mem_ctrls.rank0.refreshEnergy        634313940                       # Energy for refresh commands per rank (pJ)
system.mem_ctrls.rank0.actBackEnergy       4035554961                       # Energy for active background per rank (pJ)
system.mem_ctrls.rank0.preBackEnergy     357280499.999963                       # Energy for precharge background per rank (pJ)
system.mem_ctrls.rank0.actPowerDownEnergy            0                       # Energy for active power-down per rank (pJ)
system.mem_ctrls.rank0.prePowerDownEnergy            0                       # Energy for precharge power-down per rank (pJ)
system.mem_ctrls.rank0.selfRefreshEnergy            0                       # Energy for self refresh per rank (pJ)
system.mem_ctrls.rank0.totalEnergy       15157699732.799810                       # Total energy per rank (pJ)
system.mem_ctrls.rank0.averagePower        148.845316                       # Core power per rank (mW)
system.mem_ctrls.rank0.totalIdleTime                0                       # Total Idle time Per DRAM Rank
system.mem_ctrls.rank0.memoryStateTime::IDLE   8794652500                       # Time in different power states
system.mem_ctrls.rank0.memoryStateTime::REF   3410290000                       # Time in different power states
system.mem_ctrls.rank0.memoryStateTime::SREF            0                       # Time in different power states
system.mem_ctrls.rank0.memoryStateTime::PRE_PDN            0                       # Time in different power states
system.mem_ctrls.rank0.memoryStateTime::ACT  89632028125                       # Time in different power states
system.mem_ctrls.rank0.memoryStateTime::ACT_PDN            0                       # Time in different power states
system.iobus.pwrStateResidencyTicks::UNDEFINED 614362050625                       # Cumulative time (in ticks) in various power states
system.cpu_clk_domain.clock                       625                       # Clock period in ticks
system.cpu.pwrStateResidencyTicks::ON    614362050625                       # Cumulative time (in ticks) in various power states
system.cpu.icache.pwrStateResidencyTicks::UNDEFINED 614362050625                       # Cumulative time (in ticks) in various power states
system.cpu.icache.blocked_cycles::no_mshrs            0                       # number of cycles access was blocked
system.cpu.icache.blocked_cycles::no_targets            0                       # number of cycles access was blocked
system.cpu.icache.blocked::no_mshrs                 0                       # number of cycles access was blocked
system.cpu.icache.blocked::no_targets               0                       # number of cycles access was blocked
system.cpu.icache.avg_blocked_cycles::no_mshrs          nan                       # average number of cycles each access was blocked
system.cpu.icache.avg_blocked_cycles::no_targets          nan                       # average number of cycles each access was blocked
system.cpu.icache.overall_mshr_uncacheable_misses::.cpu.inst      1435805                       # number of overall MSHR uncacheable misses
system.cpu.icache.overall_mshr_uncacheable_misses::total      1435805                       # number of overall MSHR uncacheable misses
system.cpu.icache.overall_mshr_uncacheable_latency::.cpu.inst  60080929500                       # number of overall MSHR uncacheable cycles
system.cpu.icache.overall_mshr_uncacheable_latency::total  60080929500                       # number of overall MSHR uncacheable cycles
system.cpu.icache.overall_avg_mshr_uncacheable_latency::.cpu.inst 41844.769659                       # average overall mshr uncacheable latency
system.cpu.icache.overall_avg_mshr_uncacheable_latency::total 41844.769659                       # average overall mshr uncacheable latency
system.cpu.icache.replacements                      0                       # number of replacements
system.cpu.icache.ReadReq_mshr_uncacheable::.cpu.inst      1435805                       # number of ReadReq MSHR uncacheable
system.cpu.icache.ReadReq_mshr_uncacheable::total      1435805                       # number of ReadReq MSHR uncacheable
system.cpu.icache.ReadReq_mshr_uncacheable_latency::.cpu.inst  60080929500                       # number of ReadReq MSHR uncacheable cycles
system.cpu.icache.ReadReq_mshr_uncacheable_latency::total  60080929500                       # number of ReadReq MSHR uncacheable cycles
system.cpu.icache.ReadReq_avg_mshr_uncacheable_latency::.cpu.inst 41844.769659                       # average ReadReq mshr uncacheable latency
system.cpu.icache.ReadReq_avg_mshr_uncacheable_latency::total 41844.769659                       # average ReadReq mshr uncacheable latency
system.cpu.icache.tags.pwrStateResidencyTicks::UNDEFINED 614362050625                       # Cumulative time (in ticks) in various power states
system.cpu.icache.tags.tagsinuse                    0                       # Cycle average of tags in use
system.cpu.icache.tags.total_refs                   0                       # Total number of references to valid blocks.
system.cpu.icache.tags.sampled_refs                 0                       # Sample count of references to valid blocks.
system.cpu.icache.tags.avg_refs                   nan                       # Average number of references to valid blocks.
system.cpu.icache.tags.warmup_cycle                 0                       # Cycle when the warmup percentage was hit.
system.cpu.icache.tags.tag_accesses                 0                       # Number of tag accesses
system.cpu.icache.tags.data_accesses                0                       # Number of data accesses
system.cpu.dtb.walker.pwrStateResidencyTicks::UNDEFINED 614362050625                       # Cumulative time (in ticks) in various power states
system.cpu.dtb.stage2_mmu.stage2_tlb.walker.pwrStateResidencyTicks::UNDEFINED 614362050625                       # Cumulative time (in ticks) in various power states
system.cpu.dcache.pwrStateResidencyTicks::UNDEFINED 614362050625                       # Cumulative time (in ticks) in various power states
system.cpu.dcache.blocked_cycles::no_mshrs            0                       # number of cycles access was blocked
system.cpu.dcache.blocked_cycles::no_targets            0                       # number of cycles access was blocked
system.cpu.dcache.blocked::no_mshrs                 0                       # number of cycles access was blocked
system.cpu.dcache.blocked::no_targets               0                       # number of cycles access was blocked
system.cpu.dcache.avg_blocked_cycles::no_mshrs          nan                       # average number of cycles each access was blocked
system.cpu.dcache.avg_blocked_cycles::no_targets          nan                       # average number of cycles each access was blocked
system.cpu.dcache.overall_mshr_uncacheable_misses::.cpu.data      1080571                       # number of overall MSHR uncacheable misses
system.cpu.dcache.overall_mshr_uncacheable_misses::total      1080571                       # number of overall MSHR uncacheable misses
system.cpu.dcache.overall_mshr_uncacheable_latency::.cpu.data  83471129750                       # number of overall MSHR uncacheable cycles
system.cpu.dcache.overall_mshr_uncacheable_latency::total  83471129750                       # number of overall MSHR uncacheable cycles
system.cpu.dcache.overall_avg_mshr_uncacheable_latency::.cpu.data 77247.242199                       # average overall mshr uncacheable latency
system.cpu.dcache.overall_avg_mshr_uncacheable_latency::total 77247.242199                       # average overall mshr uncacheable latency
system.cpu.dcache.replacements                      0                       # number of replacements
system.cpu.dcache.ReadReq_mshr_uncacheable::.cpu.data       886288                       # number of ReadReq MSHR uncacheable
system.cpu.dcache.ReadReq_mshr_uncacheable::total       886288                       # number of ReadReq MSHR uncacheable
system.cpu.dcache.ReadReq_mshr_uncacheable_latency::.cpu.data  83471129750                       # number of ReadReq MSHR uncacheable cycles
system.cpu.dcache.ReadReq_mshr_uncacheable_latency::total  83471129750                       # number of ReadReq MSHR uncacheable cycles
system.cpu.dcache.ReadReq_avg_mshr_uncacheable_latency::.cpu.data 94180.593385                       # average ReadReq mshr uncacheable latency
system.cpu.dcache.ReadReq_avg_mshr_uncacheable_latency::total 94180.593385                       # average ReadReq mshr uncacheable latency
system.cpu.dcache.WriteReq_mshr_uncacheable::.cpu.data       194283                       # number of WriteReq MSHR uncacheable
system.cpu.dcache.WriteReq_mshr_uncacheable::total       194283                       # number of WriteReq MSHR uncacheable
system.cpu.dcache.tags.pwrStateResidencyTicks::UNDEFINED 614362050625                       # Cumulative time (in ticks) in various power states
system.cpu.dcache.tags.tagsinuse                    0                       # Cycle average of tags in use
system.cpu.dcache.tags.total_refs                   0                       # Total number of references to valid blocks.
system.cpu.dcache.tags.sampled_refs                 0                       # Sample count of references to valid blocks.
system.cpu.dcache.tags.avg_refs                   nan                       # Average number of references to valid blocks.
system.cpu.dcache.tags.warmup_cycle                 0                       # Cycle when the warmup percentage was hit.
system.cpu.dcache.tags.tag_accesses                 0                       # Number of tag accesses
system.cpu.dcache.tags.data_accesses                0                       # Number of data accesses
system.cpu.itb.walker.pwrStateResidencyTicks::UNDEFINED 614362050625                       # Cumulative time (in ticks) in various power states
system.cpu.itb.stage2_mmu.stage2_tlb.walker.pwrStateResidencyTicks::UNDEFINED 614362050625                       # Cumulative time (in ticks) in various power states

---------- End Simulation Statistics   ----------
