gem5 Simulator System.  http://gem5.org
gem5 is copyrighted software; use the --copyright option for details.

gem5 compiled Jun 12 2023 18:40:01
gem5 started Jul 13 2023 13:22:09
gem5 executing on node4x10a.cs.rochester.edu, pid 55562
command line: /u/sgupta45/gem5-SALAM/build/ARM/gem5_bus.opt --debug-flags=HWACC,CommInterface,LLVMInterface,StreamDma,NoncoherentDma,TickTimer,SchedulerStats --outdir=BM_ARM_OUT/comb_3/canny_1_deblur_0_gru_1_harris_0_lstm_1_LAX configs/SALAM/scheduler.py --mem-size=4GB --mem-type=LPDDR5_6400_1x16_BG_BL32 --kernel=/u/sgupta45/gem5-SALAM/benchmarks/scheduler/sw/bin_comb_3/canny_1_deblur_0_gru_1_harris_0_lstm_1_LAX.elf --vans-config-path=/u/sgupta45/VANS/config --disk-image=/u/sgupta45/gem5-SALAM/baremetal/common/fake.iso --machine-type=VExpress_GEM5_V1 --dtb-file=none --bare-metal --cpu-type=ex5_LITTLE --cpu-clock=1.6GHz --accpath=/u/sgupta45/gem5-SALAM/benchmarks --caches --cacheline_size=64 --l1d_size=32kB --l1d_assoc=4 --l1i_size=32kB --l1i_assoc=2

Global frequency set at 1000000000000 ticks per second
Cycle Counts Loaded!
Cycle Counts Loaded!
Cycle Counts Loaded!
Cycle Counts Loaded!
Cycle Counts Loaded!
Cycle Counts Loaded!
Cycle Counts Loaded!
Cycle Counts Loaded!
Cycle Counts Loaded!
Cycle Counts Loaded!
Cycle Counts Loaded!
**** REAL SIMULATION ****
7102840625: global: Timer #2 started at tick 7102840625
7103872500: global: Timer #2 stopped at tick 7103872500. Duration: 1031875
7107985000: global: Timer #2 started at tick 7107985000
7108401875: global: Timer #2 stopped at tick 7108401875. Duration: 416875
7139810000: global: Timer #2 started at tick 7139810000
7140476875: global: Timer #2 stopped at tick 7140476875. Duration: 666875
7190905875: system.acctest.elem_matrix0_dma: SRC:0x000000008222e400, DST:0x0000000024000020, LEN:65536
7196314500: system.acctest.isp0_dma: SRC:0x0000000082018d40, DST:0x0000000027000020, LEN:16900
7196736875: global: Number of accelerators running = 2
7199845500: system.acctest.isp0_dma: Transfer completed in 3.531 us
7200580000: global: Timer #0 started at tick 7200580000
7202009375: global: Timer #1 started at tick 7202009375
7202787500: global: Timer #1 stopped at tick 7202787500. Duration: 778125
7203367875: system.acctest.elem_matrix0_dma: Transfer completed in 12.462 us
7204816250: global: Timer #0 stopped at tick 7204816250. Duration: 4236250
7204878125: global: Number of accelerators running = 2
7205213750: global: Timer #0 started at tick 7205213750
7205870625: global: Timer #1 started at tick 7205870625
7206191875: global: Timer #1 stopped at tick 7206191875. Duration: 321250
7220496625: system.acctest.elem_matrix0_dma: SRC:0x000000008212e240, DST:0x0000000024010020, LEN:65536
7220821875: global: Timer #0 stopped at tick 7220821875. Duration: 15608125
7220838125: global: Number of accelerators running = 2
7232730625: system.acctest.elem_matrix0_dma: Transfer completed in 12.234 us
7232821250: global: Timer #0 started at tick 7232821250
7233344375: global: Timer #1 started at tick 7233344375
7233535000: global: Timer #1 stopped at tick 7233535000. Duration: 190625
7235147500: global: Timer #0 stopped at tick 7235147500. Duration: 2326250
7235163750: global: Number of accelerators running = 2
********************************************************************************
system.acctest.isp0.compute
   ========= Performance Analysis =============
   Setup Time:                      0.152404seconds
   Simulation Time:                 687.716seconds
   System Clock:                    1GHz
   Transistor Latency:              1ns
   Runtime:                         34882 cycles
   Runtime:                         34.882 us
   Stalls:                          1 cycles
   Executed Nodes:                  34880 cycles

********************************************************************************
   ========= Performance Analysis =================
   Setup Time:                      1.52404e+08ns
   Simulation Time:                 6.87716e+11ns
   System Clock:                    1GHz
   Transistor Latency:              0ns
   Runtime:                         34882 cycles
   Runtime:                         3.4882e-06 seconds
   Stalls:                          1 cycles
       Load Only:                   0 cycles
       Store Only:                  1 cycles
       Compute Only:                0 cycles
       Compute & Store:             0 cycles
       Load & Store:                0 cycles
       Load & Compute:              0 cycles
       Load & Compute & Store:      0 cycles
   Executed Nodes:                  34880 cycles
       Load Only:                   0 cycles
       Store Only:                  1 cycles
       Compute Only:                3453 cycles
       Compute & Store:             19014 cycles
       Load & Store:                0 cycles
       Load & Compute:              2467 cycles
       Load & Compute & Store:      9945 cycles

   ========= Runtime FU's ========= (Max | Avg) ===
   Counter FU's:                      10 | 0.118075
   Integer Add/Sub FU's:              76 | 0.082082
   Integer Mul/Div FU's:              11 | 0.043888
   Integer Shifter FU's:              42 | 0.055974
   Integer Bitwise FU's:               4 | 0.059443
   Floating Point Float Add/Sub:      53 | 0.116839
   Floating Point Double Add/Sub:      0 | 0.000000
   Floating Point Float Mul/Div:      76 | 0.625626
   Floating Point Double Mul/Div:      0 | 0.000000
   0 Cycle Compare FU's:              85 | 0.664984
   GEP Instruction FU's:              33 | 0.117424
   Type Conversion FU's:             110 | 0.379700

   ========= Static FU's ==========================
   Counter FU's:                    0
   Integer Add/Sub FU's:            0
   Integer Mul/Div FU's:            0
   Integer Shifter FU's:            0
   Integer Bitwise FU's:            0
   Floating Point Float Add/Sub:    0
   Floating Point Double Add/Sub:   0
   Floating Point Float Mul/Div:    0
   Floating Point Double Mul/Div:   0
   0 Cycle Compare FU's:            0
   GEP Instruction FU's:            0
   Type Conversion FU's:            0
   Other:                           0

   ========= Pipeline Register Usage =============
   Total Number of Registers:       1620
   Max Register Usage Per Cycle:    151
   Avg Register Usage Per Cycle:    58.744711
   Avg Register Size (Bytes):       5.073357

   ========= Memory Configuration =================
   Cache Bus Ports:                 0
   Shared Cache Size:               0kB
   Local Bus Ports:                 0
   Private SPM Size:                112kB
   Private Read Ports:              0
   Private Write Ports:             0
   Private Read Bus Width:          64
   Private Write Bus Width:         64
       Memory Reads:                0
       Memory Writes:               0
   ========= Power Analysis ======================
   FU Leakage Power:                1.637787 mW 
   FU Dynamic Power:                9.655087 mW 
   FU Total Power:                  11.292874 mW 

   Registers Leakage Power:          0.021654 mW 
   Registers Dynamic Power:          3.085961 mW 
       Register Reads (Bits):        2049133
       Register Writes (Bits):       2049168
   Registers Total Power:            3.107615 mW

   SPM Leakage Power:               0.061081 mW
   SPM Read Dynamic Power:          11.103730 mW
   SPM Write Dynamic Power:         7.385230 mW
   SPM Total Power:                 18.550041 mW

   Cache Leakage Power:             0.000000 mW
   Cache Read Dynamic Power:        0.000000 mW
   Cache Write Dynamic Power:       0.000000 mW
   Cache Total Power:               0.000000 mW

   Accelerator Power:               14.400490 mW
   Accelerator Power (SPM):         32.950531 mW
   Accelerator Power (Cache):       14.400490 mW

   ========= Area Analysis =======================
   FU Area:                         176023.796875 um^2 (0.176024 mm^2)
   Register Area:                   1760.064941 um^2 (0.001760 mm^2)
   SPM Area:                        2165.394891 um^2 (0.002165 mm^2)
   Cache Area:                      0.000000 um^2 (0.000000 mm^2)

   Accelerator Area:                177783.859375 um^2 (0.177784 mm^2)
   Accelerator Area (SPM):          179949.254266 um^2 (0.179949 mm^2)
   Accelerator Area (Cache):        177783.859375 um^2 (0.177784 mm^2)

   ========= SPM Resizing  =======================
   SPM Optimized Leakage Power:     0.005964 mW
   SPM Opt Area:                    422.108128 um^2

7239135625: global: Timer #0 started at tick 7239135625
7239655625: global: Timer #2 started at tick 7239655625
7240510000: global: Timer #2 stopped at tick 7240510000. Duration: 854375
7241278125: global: DAG ID = 0
7241297500: global: Node ID = 0
7241315625: global: Node deadline difference = -13498
7241377500: global: Predicted memory time / byte = 7.27596e-05 us/byte
7241395625: global: Predicted memory time = 1.22964 us
7241413750: global: Predicted memory time / byte = 7.27596e-05 us/byte
7241431875: global: Predicted memory time = 3.57628 us
7241450000: global: Predicted memory time / byte = 0.000257515 us/byte
7241511250: global: Predicted memory time = 4.352 us
7241529375: global: Predicted memory time / byte = 0 us/byte
7241547500: global: Predicted memory time = 0 us
7241565625: global: Predicted memory access size = 0
7241583750: global: Predicted memory access size = 16900
7241646250: global: Predicted memory access size = 0
7241665000: global: Predicted memory access size = 0
7242898750: system.acctest.grayscale0_dma: SRC:0x0000000027004224, DST:0x0000000025000020, LEN:49152
7243311875: global: Timer #0 stopped at tick 7243311875. Duration: 4176250
7243328125: global: Number of accelerators running = 2
********************************************************************************
system.acctest.elem_matrix0.compute
   ========= Performance Analysis =============
   Setup Time:                      5.139949seconds
   Simulation Time:                 321.574590seconds
   System Clock:                    1.000000GHz
   Transistor Latency:              1ns
   Runtime:                         10932 cycles
   Runtime:                         10.932000 us
   Stalls:                          0 cycles
   Executed Nodes:                  10931 cycles

********************************************************************************
   ========= Performance Analysis =================
   Setup Time:                      5139948541.000000ns
   Simulation Time:                 321574590250.000000ns
   System Clock:                    1.000000GHz
   Transistor Latency:              0ns
   Runtime:                         10932 cycles
   Runtime:                         0.000001 seconds
   Stalls:                          0 cycles
       Load Only:                   0 cycles
       Store Only:                  0 cycles
       Compute Only:                0 cycles
       Compute & Store:             0 cycles
       Load & Store:                0 cycles
       Load & Compute:              0 cycles
       Load & Compute & Store:      0 cycles
   Executed Nodes:                  10931 cycles
       Load Only:                   0 cycles
       Store Only:                  5 cycles
       Compute Only:                1 cycles
       Compute & Store:             21 cycles
       Load & Store:                0 cycles
       Load & Compute:              7 cycles
       Load & Compute & Store:      10897 cycles

   ========= Runtime FU's ========= (Max | Avg) ===
   Counter FU's:                      32 | 0.046838
   Integer Add/Sub FU's:               0 | 0.000000
   Integer Mul/Div FU's:               0 | 0.000000
   Integer Shifter FU's:               0 | 0.000000
   Integer Bitwise FU's:               1 | 0.000091
   Floating Point Float Add/Sub:      34 | 0.044252
   Floating Point Double Add/Sub:      0 | 0.000000
   Floating Point Float Mul/Div:       0 | 0.000000
   Floating Point Double Mul/Div:      0 | 0.000000
   0 Cycle Compare FU's:             102 | 0.046974
   GEP Instruction FU's:              96 | 0.046835
   Type Conversion FU's:               7 | 0.006782

   ========= Static FU's ==========================
   Counter FU's:                    0
   Integer Add/Sub FU's:            0
   Integer Mul/Div FU's:            0
   Integer Shifter FU's:            0
   Integer Bitwise FU's:            0
   Floating Point Float Add/Sub:    0
   Floating Point Double Add/Sub:   0
   Floating Point Float Mul/Div:    0
   Floating Point Double Mul/Div:   0
   0 Cycle Compare FU's:            0
   GEP Instruction FU's:            0
   Type Conversion FU's:            0
   Other:                           0

   ========= Pipeline Register Usage =============
   Total Number of Registers:       5641
   Max Register Usage Per Cycle:    138
   Avg Register Usage Per Cycle:    12.130992
   Avg Register Size (Bytes):       5.980606

   ========= Memory Configuration =================
   Cache Bus Ports:                 0
   Shared Cache Size:               0kB
   Local Bus Ports:                 0
   Private SPM Size:                256kB
   Private Read Ports:              0
   Private Write Ports:             0
   Private Read Bus Width:          64
   Private Write Bus Width:         64
       Memory Reads:                0
       Memory Writes:               0
   ========= Power Analysis ======================
   FU Leakage Power:                0.519269 mW 
   FU Dynamic Power:                0.154621 mW 
   FU Total Power:                  0.673890 mW 

   Registers Leakage Power:          0.005281 mW 
   Registers Dynamic Power:          0.015326 mW 
       Register Reads (Bits):        132616
       Register Writes (Bits):       133658
   Registers Total Power:            0.020607 mW

   SPM Leakage Power:               0.104100 mW
   SPM Read Dynamic Power:          1.997266 mW
   SPM Write Dynamic Power:         0.953321 mW
   SPM Total Power:                 3.054688 mW

   Cache Leakage Power:             0.000000 mW
   Cache Read Dynamic Power:        0.000000 mW
   Cache Write Dynamic Power:       0.000000 mW
   Cache Total Power:               0.000000 mW

   Accelerator Power:               0.694497 mW
   Accelerator Power (SPM):         3.749184 mW
   Accelerator Power (Cache):       0.694497 mW

   ========= Area Analysis =======================
   FU Area:                         70212.562500 um^2 (0.070213 mm^2)
   Register Area:                   429.271088 um^2 (0.000429 mm^2)
   SPM Area:                        2177.365505 um^2 (0.002177 mm^2)
   Cache Area:                      0.000000 um^2 (0.000000 mm^2)

   Accelerator Area:                70641.835938 um^2 (0.070642 mm^2)
   Accelerator Area (SPM):          72819.201442 um^2 (0.072819 mm^2)
   Accelerator Area (Cache):        70641.835938 um^2 (0.070642 mm^2)

   ========= SPM Resizing  =======================
   SPM Optimized Leakage Power:     0.004248 mW
   SPM Opt Area:                    178.524902 um^2

7245895625: global: Timer #0 started at tick 7245895625
7246264375: global: Timer #2 started at tick 7246264375
7246816875: global: Timer #2 stopped at tick 7246816875. Duration: 552500
7247163750: global: Timer #2 started at tick 7247163750
7247563750: global: Timer #2 stopped at tick 7247563750. Duration: 400000
7250601750: system.acctest.grayscale0_dma: Transfer completed in 7.703 us
7261085875: system.acctest.elem_matrix0_dma: SRC:0x0000000024020020, DST:0x000000008213e240, LEN:65536
7261539375: global: Timer #0 stopped at tick 7261539375. Duration: 15643750
7261555625: global: Number of accelerators running = 2
7261725625: global: Timer #0 started at tick 7261725625
7262226250: global: Timer #1 started at tick 7262226250
7262547500: global: Timer #1 stopped at tick 7262547500. Duration: 321250
7264095625: global: Timer #0 stopped at tick 7264095625. Duration: 2370000
7264197500: global: Number of accelerators running = 2
7267410875: system.acctest.elem_matrix0_dma: Transfer completed in 6.325 us
7267551875: global: Timer #0 started at tick 7267551875
7268145625: global: Timer #1 started at tick 7268145625
7268488125: global: Timer #1 stopped at tick 7268488125. Duration: 342500
7268987500: global: DAG ID = 1
7269051250: global: Node ID = 0
7269125000: global: Node deadline difference = -2228
7269143125: global: Predicted memory time / byte = 7.27596e-05 us/byte
7269161250: global: Predicted memory time = 9.53674 us
7269181250: global: Predicted memory time / byte = 7.27596e-05 us/byte
7269199375: global: Predicted memory time = 4.76837 us
7269217500: global: Predicted memory time / byte = 0.000203453 us/byte
7269235625: global: Predicted memory time = 26.667 us
7269253750: global: Predicted memory time / byte = 0.000100021 us/byte
7269271875: global: Predicted memory time = 6.555 us
7269291875: global: Predicted memory access size = 0
7269310000: global: Predicted memory access size = 131072
7269328125: global: Predicted memory access size = 0
7269346250: global: Predicted memory access size = 65536
********************************************************************************
system.acctest.grayscale0.compute
   ========= Performance Analysis =============
   Setup Time:                      0.009101seconds
   Simulation Time:                 223.634731seconds
   System Clock:                    1.000000GHz
   Transistor Latency:              1ns
   Runtime:                         10263 cycles
   Runtime:                         10.263000 us
   Stalls:                          1 cycles
   Executed Nodes:                  10261 cycles

********************************************************************************
   ========= Performance Analysis =================
   Setup Time:                      9101219.000000ns
   Simulation Time:                 223634730608.000000ns
   System Clock:                    1.000000GHz
   Transistor Latency:              0ns
   Runtime:                         10263 cycles
   Runtime:                         0.000001 seconds
   Stalls:                          1 cycles
       Load Only:                   0 cycles
       Store Only:                  1 cycles
       Compute Only:                0 cycles
       Compute & Store:             0 cycles
       Load & Store:                0 cycles
       Load & Compute:              0 cycles
       Load & Compute & Store:      0 cycles
   Executed Nodes:                  10261 cycles
       Load Only:                   0 cycles
       Store Only:                  1 cycles
       Compute Only:                88 cycles
       Compute & Store:             344 cycles
       Load & Store:                0 cycles
       Load & Compute:              1981 cycles
       Load & Compute & Store:      7847 cycles

   ========= Runtime FU's ========= (Max | Avg) ===
   Counter FU's:                      24 | 0.199556
   Integer Add/Sub FU's:               0 | 0.000000
   Integer Mul/Div FU's:               8 | 0.199552
   Integer Shifter FU's:               0 | 0.000000
   Integer Bitwise FU's:               1 | 0.000097
   Floating Point Float Add/Sub:      49 | 0.114264
   Floating Point Double Add/Sub:      0 | 0.000000
   Floating Point Float Mul/Div:      42 | 0.114129
   Floating Point Double Mul/Div:      0 | 0.000000
   0 Cycle Compare FU's:               9 | 0.066626
   GEP Instruction FU's:              36 | 0.177452
   Type Conversion FU's:              76 | 0.401969

   ========= Static FU's ==========================
   Counter FU's:                    0
   Integer Add/Sub FU's:            0
   Integer Mul/Div FU's:            0
   Integer Shifter FU's:            0
   Integer Bitwise FU's:            0
   Floating Point Float Add/Sub:    0
   Floating Point Double Add/Sub:   0
   Floating Point Float Mul/Div:    0
   Floating Point Double Mul/Div:   0
   0 Cycle Compare FU's:            0
   GEP Instruction FU's:            0
   Type Conversion FU's:            0
   Other:                           0

   ========= Pipeline Register Usage =============
   Total Number of Registers:       235
   Max Register Usage Per Cycle:    90
   Avg Register Usage Per Cycle:    33.924291
   Avg Register Size (Bytes):       5.841147

   ========= Memory Configuration =================
   Cache Bus Ports:                 0
   Shared Cache Size:               0kB
   Local Bus Ports:                 0
   Private SPM Size:                176kB
   Private Read Ports:              0
   Private Write Ports:             0
   Private Read Bus Width:          64
   Private Write Bus Width:         64
       Memory Reads:                0
       Memory Writes:               0
   ========= Power Analysis ======================
   FU Leakage Power:                1.178269 mW 
   FU Dynamic Power:                0.617392 mW 
   FU Total Power:                  1.795662 mW 

   Registers Leakage Power:          0.014185 mW 
   Registers Dynamic Power:          0.101057 mW 
       Register Reads (Bits):        348165
       Register Writes (Bits):       348168
   Registers Total Power:            0.115242 mW

   SPM Leakage Power:               0.089881 mW
   SPM Read Dynamic Power:          6.997296 mW
   SPM Write Dynamic Power:         2.062375 mW
   SPM Total Power:                 9.149552 mW

   Cache Leakage Power:             0.000000 mW
   Cache Read Dynamic Power:        0.000000 mW
   Cache Write Dynamic Power:       0.000000 mW
   Cache Total Power:               0.000000 mW

   Accelerator Power:               1.910904 mW
   Accelerator Power (SPM):         11.060456 mW
   Accelerator Power (Cache):       1.910904 mW

   ========= Area Analysis =======================
   FU Area:                         143348.187500 um^2 (0.143348 mm^2)
   Register Area:                   1152.968140 um^2 (0.001153 mm^2)
   SPM Area:                        3573.642862 um^2 (0.003574 mm^2)
   Cache Area:                      0.000000 um^2 (0.000000 mm^2)

   Accelerator Area:                144501.156250 um^2 (0.144501 mm^2)
   Accelerator Area (SPM):          148074.799112 um^2 (0.148075 mm^2)
   Accelerator Area (Cache):        144501.156250 um^2 (0.144501 mm^2)

   ========= SPM Resizing  =======================
   SPM Optimized Leakage Power:     0.003633 mW
   SPM Opt Area:                    364.024374 um^2

7283050875: system.acctest.elem_matrix0_dma: SRC:0x00000000820ee0c0, DST:0x0000000024000020, LEN:65536
7283262500: global: Timer #0 stopped at tick 7283262500. Duration: 15710625
7283278750: global: Number of accelerators running = 2
7283513125: global: Timer #0 started at tick 7283513125
7283923750: global: Timer #2 started at tick 7283923750
7284575625: global: Timer #2 stopped at tick 7284575625. Duration: 651875
7284835000: global: DAG ID = 0
7284848750: global: Node ID = 1
7284861875: global: Node deadline difference = -13492
7284874375: global: Predicted memory time / byte = 0.000188019 us/byte
7284886875: global: Predicted memory time = 9.2415 us
7284899375: global: Predicted memory time / byte = 0.000188019 us/byte
7284911875: global: Predicted memory time = 12.322 us
7284924375: global: Predicted memory time / byte = 0.0003821 us/byte
7284936875: global: Predicted memory time = 18.781 us
7284949375: global: Predicted memory time / byte = 0 us/byte
7284961875: global: Predicted memory time = 0 us
7284974375: global: Predicted memory access size = 0
7284986875: global: Predicted memory access size = 49152
7284999375: global: Predicted memory access size = 0
7285011875: global: Predicted memory access size = 0
7286449500: system.acctest.convolution0_dma: SRC:0x000000002500c020, DST:0x0000000022000020, LEN:65536
7287082500: global: Timer #0 stopped at tick 7287082500. Duration: 3569375
7287098750: global: Number of accelerators running = 2
7295233875: system.acctest.elem_matrix0_dma: Transfer completed in 12.183 us
7295450625: global: Timer #0 started at tick 7295450625
7295939375: global: Timer #1 started at tick 7295939375
7296226875: global: Timer #1 stopped at tick 7296226875. Duration: 287500
7298284375: global: Timer #0 stopped at tick 7298284375. Duration: 2833750
7298343750: global: Number of accelerators running = 2
7300385500: system.acctest.convolution0_dma: Transfer completed in 13.936 us
7300481250: global: Timer #0 started at tick 7300481250
7301016250: global: Timer #1 started at tick 7301016250
7301208750: global: Timer #1 stopped at tick 7301208750. Duration: 192500
7302680875: system.acctest.convolution0_dma: SRC:0x0000000082039280, DST:0x0000000022030020, LEN:100
7302777875: system.acctest.convolution0_dma: Transfer completed in 0.097 us
7302925625: global: Timer #0 stopped at tick 7302925625. Duration: 2444375
7302941875: global: Number of accelerators running = 2
7303275625: global: Timer #0 started at tick 7303275625
7305195000: global: Timer #0 stopped at tick 7305195000. Duration: 1919375
7305211250: global: Number of accelerators running = 2
********************************************************************************
system.acctest.elem_matrix0.compute
   ========= Performance Analysis =============
   Setup Time:                      14.653539seconds
   Simulation Time:                 216.889434seconds
   System Clock:                    1.000000GHz
   Transistor Latency:              1ns
   Runtime:                         10932 cycles
   Runtime:                         10.932000 us
   Stalls:                          1 cycles
   Executed Nodes:                  10930 cycles

********************************************************************************
   ========= Performance Analysis =================
   Setup Time:                      14653538515.000000ns
   Simulation Time:                 216889433556.000000ns
   System Clock:                    1.000000GHz
   Transistor Latency:              0ns
   Runtime:                         10932 cycles
   Runtime:                         0.000001 seconds
   Stalls:                          1 cycles
       Load Only:                   0 cycles
       Store Only:                  1 cycles
       Compute Only:                0 cycles
       Compute & Store:             0 cycles
       Load & Store:                0 cycles
       Load & Compute:              0 cycles
       Load & Compute & Store:      0 cycles
   Executed Nodes:                  10930 cycles
       Load Only:                   0 cycles
       Store Only:                  4 cycles
       Compute Only:                1 cycles
       Compute & Store:             21 cycles
       Load & Store:                0 cycles
       Load & Compute:              6 cycles
       Load & Compute & Store:      10898 cycles

   ========= Runtime FU's ========= (Max | Avg) ===
   Counter FU's:                      32 | 0.046838
   Integer Add/Sub FU's:               0 | 0.000000
   Integer Mul/Div FU's:               0 | 0.000000
   Integer Shifter FU's:               0 | 0.000000
   Integer Bitwise FU's:               1 | 0.000091
   Floating Point Float Add/Sub:       0 | 0.000000
   Floating Point Double Add/Sub:      0 | 0.000000
   Floating Point Float Mul/Div:      34 | 0.044252
   Floating Point Double Mul/Div:      0 | 0.000000
   0 Cycle Compare FU's:             102 | 0.046945
   GEP Instruction FU's:              96 | 0.046835
   Type Conversion FU's:               7 | 0.006782

   ========= Static FU's ==========================
   Counter FU's:                    0
   Integer Add/Sub FU's:            0
   Integer Mul/Div FU's:            0
   Integer Shifter FU's:            0
   Integer Bitwise FU's:            0
   Floating Point Float Add/Sub:    0
   Floating Point Double Add/Sub:   0
   Floating Point Float Mul/Div:    0
   Floating Point Double Mul/Div:   0
   0 Cycle Compare FU's:            0
   GEP Instruction FU's:            0
   Type Conversion FU's:            0
   Other:                           0

   ========= Pipeline Register Usage =============
   Total Number of Registers:       5641
   Max Register Usage Per Cycle:    137
   Avg Register Usage Per Cycle:    12.130992
   Avg Register Size (Bytes):       5.980606

   ========= Memory Configuration =================
   Cache Bus Ports:                 0
   Shared Cache Size:               0kB
   Local Bus Ports:                 0
   Private SPM Size:                256kB
   Private Read Ports:              0
   Private Write Ports:             0
   Private Read Bus Width:          64
   Private Write Bus Width:         64
       Memory Reads:                0
       Memory Writes:               0
   ========= Power Analysis ======================
   FU Leakage Power:                0.045377 mW 
   FU Dynamic Power:                0.142576 mW 
   FU Total Power:                  0.187953 mW 

   Registers Leakage Power:          0.005281 mW 
   Registers Dynamic Power:          0.015326 mW 
       Register Reads (Bits):        132616
       Register Writes (Bits):       133658
   Registers Total Power:            0.020607 mW

   SPM Leakage Power:               0.104100 mW
   SPM Read Dynamic Power:          2.785289 mW
   SPM Write Dynamic Power:         2.044305 mW
   SPM Total Power:                 4.933694 mW

   Cache Leakage Power:             0.000000 mW
   Cache Read Dynamic Power:        0.000000 mW
   Cache Write Dynamic Power:       0.000000 mW
   Cache Total Power:               0.000000 mW

   Accelerator Power:               0.208559 mW
   Accelerator Power (SPM):         5.142254 mW
   Accelerator Power (Cache):       0.208559 mW

   ========= Area Analysis =======================
   FU Area:                         5472.068359 um^2 (0.005472 mm^2)
   Register Area:                   429.271088 um^2 (0.000429 mm^2)
   SPM Area:                        2177.365505 um^2 (0.002177 mm^2)
   Cache Area:                      0.000000 um^2 (0.000000 mm^2)

   Accelerator Area:                5901.339355 um^2 (0.005901 mm^2)
   Accelerator Area (SPM):          8078.704860 um^2 (0.008079 mm^2)
   Accelerator Area (Cache):        5901.339355 um^2 (0.005901 mm^2)

   ========= SPM Resizing  =======================
   SPM Optimized Leakage Power:     0.004248 mW
   SPM Opt Area:                    178.524902 um^2

7308980625: global: Timer #0 started at tick 7308980625
7309281250: global: Timer #2 started at tick 7309281250
7309868750: global: Timer #2 stopped at tick 7309868750. Duration: 587500
7310121875: global: DAG ID = 1
7310135625: global: Node ID = 5
7310148750: global: Node deadline difference = -2243
7310161250: global: Predicted memory time / byte = 0.000188019 us/byte
7310173750: global: Predicted memory time = 24.644 us
7310186250: global: Predicted memory time / byte = 0.000188019 us/byte
7310198750: global: Predicted memory time = 12.322 us
7310211250: global: Predicted memory time / byte = 0.000189255 us/byte
7310223750: global: Predicted memory time = 12.403 us
7310236250: global: Predicted memory time / byte = 0 us/byte
7310248750: global: Predicted memory time = 0 us
7310261250: global: Predicted memory access size = 0
7310273750: global: Predicted memory access size = 65536
7310286250: global: Predicted memory access size = 0
7310298750: global: Predicted memory access size = 0
7323829500: system.acctest.elem_matrix0_dma: SRC:0x00000000820fe0c0, DST:0x0000000024000020, LEN:65536
7324045625: global: Timer #0 stopped at tick 7324045625. Duration: 15065000
7324061875: global: Number of accelerators running = 2
7335801500: system.acctest.elem_matrix0_dma: Transfer completed in 11.972 us
7335964375: global: Timer #0 started at tick 7335964375
7336375000: global: Timer #1 started at tick 7336375000
7336781875: global: Timer #1 stopped at tick 7336781875. Duration: 406875
7338373125: global: Timer #0 stopped at tick 7338373125. Duration: 2408750
7338389375: global: Number of accelerators running = 2
********************************************************************************
system.acctest.elem_matrix0.compute
   ========= Performance Analysis =============
   Setup Time:                      7.113558seconds
   Simulation Time:                 202.983533seconds
   System Clock:                    1.000000GHz
   Transistor Latency:              1ns
   Runtime:                         10932 cycles
   Runtime:                         10.932000 us
   Stalls:                          0 cycles
   Executed Nodes:                  10931 cycles

********************************************************************************
   ========= Performance Analysis =================
   Setup Time:                      7113557800.000000ns
   Simulation Time:                 202983533182.000000ns
   System Clock:                    1.000000GHz
   Transistor Latency:              0ns
   Runtime:                         10932 cycles
   Runtime:                         0.000001 seconds
   Stalls:                          0 cycles
       Load Only:                   0 cycles
       Store Only:                  0 cycles
       Compute Only:                0 cycles
       Compute & Store:             0 cycles
       Load & Store:                0 cycles
       Load & Compute:              0 cycles
       Load & Compute & Store:      0 cycles
   Executed Nodes:                  10931 cycles
       Load Only:                   0 cycles
       Store Only:                  5 cycles
       Compute Only:                1 cycles
       Compute & Store:             21 cycles
       Load & Store:                0 cycles
       Load & Compute:              7 cycles
       Load & Compute & Store:      10897 cycles

   ========= Runtime FU's ========= (Max | Avg) ===
   Counter FU's:                      32 | 0.046838
   Integer Add/Sub FU's:               0 | 0.000000
   Integer Mul/Div FU's:               0 | 0.000000
   Integer Shifter FU's:               0 | 0.000000
   Integer Bitwise FU's:               1 | 0.000091
   Floating Point Float Add/Sub:      34 | 0.044252
   Floating Point Double Add/Sub:      0 | 0.000000
   Floating Point Float Mul/Div:       0 | 0.000000
   Floating Point Double Mul/Div:      0 | 0.000000
   0 Cycle Compare FU's:             102 | 0.046974
   GEP Instruction FU's:              96 | 0.046835
   Type Conversion FU's:               7 | 0.006782

   ========= Static FU's ==========================
   Counter FU's:                    0
   Integer Add/Sub FU's:            0
   Integer Mul/Div FU's:            0
   Integer Shifter FU's:            0
   Integer Bitwise FU's:            0
   Floating Point Float Add/Sub:    0
   Floating Point Double Add/Sub:   0
   Floating Point Float Mul/Div:    0
   Floating Point Double Mul/Div:   0
   0 Cycle Compare FU's:            0
   GEP Instruction FU's:            0
   Type Conversion FU's:            0
   Other:                           0

   ========= Pipeline Register Usage =============
   Total Number of Registers:       5641
   Max Register Usage Per Cycle:    138
   Avg Register Usage Per Cycle:    12.130992
   Avg Register Size (Bytes):       5.980606

   ========= Memory Configuration =================
   Cache Bus Ports:                 0
   Shared Cache Size:               0kB
   Local Bus Ports:                 0
   Private SPM Size:                256kB
   Private Read Ports:              0
   Private Write Ports:             0
   Private Read Bus Width:          64
   Private Write Bus Width:         64
       Memory Reads:                0
       Memory Writes:               0
   ========= Power Analysis ======================
   FU Leakage Power:                0.519269 mW 
   FU Dynamic Power:                0.154621 mW 
   FU Total Power:                  0.673890 mW 

   Registers Leakage Power:          0.005281 mW 
   Registers Dynamic Power:          0.015326 mW 
       Register Reads (Bits):        132616
       Register Writes (Bits):       133658
   Registers Total Power:            0.020607 mW

   SPM Leakage Power:               0.104100 mW
   SPM Read Dynamic Power:          3.776796 mW
   SPM Write Dynamic Power:         2.457440 mW
   SPM Total Power:                 6.338336 mW

   Cache Leakage Power:             0.000000 mW
   Cache Read Dynamic Power:        0.000000 mW
   Cache Write Dynamic Power:       0.000000 mW
   Cache Total Power:               0.000000 mW

   Accelerator Power:               0.694497 mW
   Accelerator Power (SPM):         7.032833 mW
   Accelerator Power (Cache):       0.694497 mW

   ========= Area Analysis =======================
   FU Area:                         70212.562500 um^2 (0.070213 mm^2)
   Register Area:                   429.271088 um^2 (0.000429 mm^2)
   SPM Area:                        2177.365505 um^2 (0.002177 mm^2)
   Cache Area:                      0.000000 um^2 (0.000000 mm^2)

   Accelerator Area:                70641.835938 um^2 (0.070642 mm^2)
   Accelerator Area (SPM):          72819.201442 um^2 (0.072819 mm^2)
   Accelerator Area (Cache):        70641.835938 um^2 (0.070642 mm^2)

   ========= SPM Resizing  =======================
   SPM Optimized Leakage Power:     0.004248 mW
   SPM Opt Area:                    178.524902 um^2

7349139375: global: Timer #0 started at tick 7349139375
7349440000: global: Timer #2 started at tick 7349440000
7349836875: global: Timer #2 stopped at tick 7349836875. Duration: 396875
7350085000: global: DAG ID = 1
7350098750: global: Node ID = 6
7350111875: global: Node deadline difference = -2260
7350124375: global: Predicted memory time / byte = 0.000214157 us/byte
7350136875: global: Predicted memory time = 28.07 us
7350149375: global: Predicted memory time / byte = 0.000214157 us/byte
7350161875: global: Predicted memory time = 14.035 us
7350174375: global: Predicted memory time / byte = 0.000184555 us/byte
7350186875: global: Predicted memory time = 12.095 us
7350199375: global: Predicted memory time / byte = 0 us/byte
7350211875: global: Predicted memory time = 0 us
7350224375: global: Predicted memory access size = 0
7350236875: global: Predicted memory access size = 65536
7350249375: global: Predicted memory access size = 0
7350261875: global: Predicted memory access size = 0
7351668750: global: Timer #0 stopped at tick 7351668750. Duration: 2529375
7351685000: global: Number of accelerators running = 2
********************************************************************************
system.acctest.elem_matrix0.compute
   ========= Performance Analysis =============
   Setup Time:                      9.928569seconds
   Simulation Time:                 153.077280seconds
   System Clock:                    1.000000GHz
   Transistor Latency:              1ns
   Runtime:                         8316 cycles
   Runtime:                         8.316000 us
   Stalls:                          82 cycles
   Executed Nodes:                  8233 cycles

********************************************************************************
   ========= Performance Analysis =================
   Setup Time:                      9928569101.000000ns
   Simulation Time:                 153077280464.000000ns
   System Clock:                    1.000000GHz
   Transistor Latency:              0ns
   Runtime:                         8316 cycles
   Runtime:                         0.000001 seconds
   Stalls:                          82 cycles
       Load Only:                   0 cycles
       Store Only:                  77 cycles
       Compute Only:                0 cycles
       Compute & Store:             5 cycles
       Load & Store:                0 cycles
       Load & Compute:              0 cycles
       Load & Compute & Store:      0 cycles
   Executed Nodes:                  8233 cycles
       Load Only:                   0 cycles
       Store Only:                  11 cycles
       Compute Only:                1827 cycles
       Compute & Store:             3453 cycles
       Load & Store:                0 cycles
       Load & Compute:              774 cycles
       Load & Compute & Store:      2168 cycles

   ========= Runtime FU's ========= (Max | Avg) ===
   Counter FU's:                      32 | 0.061572
   Integer Add/Sub FU's:               0 | 0.000000
   Integer Mul/Div FU's:               0 | 0.000000
   Integer Shifter FU's:               0 | 0.000000
   Integer Bitwise FU's:               1 | 0.000120
   Floating Point Float Add/Sub:      80 | 0.302014
   Floating Point Double Add/Sub:      0 | 0.000000
   Floating Point Float Mul/Div:      35 | 0.056511
   Floating Point Double Mul/Div:      0 | 0.000000
   0 Cycle Compare FU's:              15 | 0.024828
   GEP Instruction FU's:              64 | 0.061568
   Type Conversion FU's:              66 | 0.120964

   ========= Static FU's ==========================
   Counter FU's:                    0
   Integer Add/Sub FU's:            0
   Integer Mul/Div FU's:            0
   Integer Shifter FU's:            0
   Integer Bitwise FU's:            0
   Floating Point Float Add/Sub:    0
   Floating Point Double Add/Sub:   0
   Floating Point Float Mul/Div:    0
   Floating Point Double Mul/Div:   0
   0 Cycle Compare FU's:            0
   GEP Instruction FU's:            0
   Type Conversion FU's:            0
   Other:                           0

   ========= Pipeline Register Usage =============
   Total Number of Registers:       5641
   Max Register Usage Per Cycle:    126
   Avg Register Usage Per Cycle:    27.706590
   Avg Register Size (Bytes):       5.993295

   ========= Memory Configuration =================
   Cache Bus Ports:                 0
   Shared Cache Size:               0kB
   Local Bus Ports:                 0
   Private SPM Size:                256kB
   Private Read Ports:              0
   Private Write Ports:             0
   Private Read Bus Width:          64
   Private Write Bus Width:         64
       Memory Reads:                0
       Memory Writes:               0
   ========= Power Analysis ======================
   FU Leakage Power:                1.265749 mW 
   FU Dynamic Power:                1.166708 mW 
   FU Total Power:                  2.432457 mW 

   Registers Leakage Power:          0.011908 mW 
   Registers Dynamic Power:          0.045645 mW 
       Register Reads (Bits):        230408
       Register Writes (Bits):       231961
   Registers Total Power:            0.057553 mW

   SPM Leakage Power:               0.104100 mW
   SPM Read Dynamic Power:          4.599549 mW
   SPM Write Dynamic Power:         2.880682 mW
   SPM Total Power:                 7.584331 mW

   Cache Leakage Power:             0.000000 mW
   Cache Read Dynamic Power:        0.000000 mW
   Cache Write Dynamic Power:       0.000000 mW
   Cache Total Power:               0.000000 mW

   Accelerator Power:               2.490010 mW
   Accelerator Power (SPM):         10.074342 mW
   Accelerator Power (Cache):       2.490010 mW

   ========= Area Analysis =======================
   FU Area:                         170559.593750 um^2 (0.170560 mm^2)
   Register Area:                   967.909180 um^2 (0.000968 mm^2)
   SPM Area:                        2177.365505 um^2 (0.002177 mm^2)
   Cache Area:                      0.000000 um^2 (0.000000 mm^2)

   Accelerator Area:                171527.500000 um^2 (0.171527 mm^2)
   Accelerator Area (SPM):          173704.865505 um^2 (0.173705 mm^2)
   Accelerator Area (Cache):        171527.500000 um^2 (0.171527 mm^2)

   ========= SPM Resizing  =======================
   SPM Optimized Leakage Power:     0.003887 mW
   SPM Opt Area:                    172.850411 um^2

7359931250: global: Timer #0 started at tick 7359931250
7360279375: global: Timer #2 started at tick 7360279375
7360695000: global: Timer #2 stopped at tick 7360695000. Duration: 415625
7360937500: global: DAG ID = 1
7360951250: global: Node ID = 7
7360964375: global: Node deadline difference = -2289
7360976875: global: Predicted memory time / byte = 0.000184555 us/byte
7360989375: global: Predicted memory time = 12.095 us
7361001875: global: Predicted memory time / byte = 0.000184555 us/byte
7361014375: global: Predicted memory time = 12.095 us
7361026875: global: Predicted memory time / byte = 0 us/byte
7361039375: global: Predicted memory time = 0 us
7361051875: global: Predicted memory time / byte = 0 us/byte
7361064375: global: Predicted memory time = 0 us
7361076875: global: Predicted memory access size = 0
7361089375: global: Predicted memory access size = 0
7361101875: global: Predicted memory access size = 0
7361114375: global: Predicted memory access size = 0
7374570875: system.acctest.elem_matrix0_dma: SRC:0x000000008222e400, DST:0x0000000024010020, LEN:65536
7374776250: global: Timer #0 stopped at tick 7374776250. Duration: 14845000
7374792500: global: Number of accelerators running = 2
7386510875: system.acctest.elem_matrix0_dma: Transfer completed in 11.94 us
7386674375: global: Timer #0 started at tick 7386674375
7387075000: global: Timer #1 started at tick 7387075000
7387303750: global: Timer #1 stopped at tick 7387303750. Duration: 228750
7388833750: global: Timer #0 stopped at tick 7388833750. Duration: 2159375
7388850000: global: Number of accelerators running = 2
********************************************************************************
system.acctest.elem_matrix0.compute
   ========= Performance Analysis =============
   Setup Time:                      6.627563seconds
   Simulation Time:                 207.819803seconds
   System Clock:                    1.000000GHz
   Transistor Latency:              1ns
   Runtime:                         10932 cycles
   Runtime:                         10.932000 us
   Stalls:                          1 cycles
   Executed Nodes:                  10930 cycles

********************************************************************************
   ========= Performance Analysis =================
   Setup Time:                      6627563244.000000ns
   Simulation Time:                 207819802910.000000ns
   System Clock:                    1.000000GHz
   Transistor Latency:              0ns
   Runtime:                         10932 cycles
   Runtime:                         0.000001 seconds
   Stalls:                          1 cycles
       Load Only:                   0 cycles
       Store Only:                  1 cycles
       Compute Only:                0 cycles
       Compute & Store:             0 cycles
       Load & Store:                0 cycles
       Load & Compute:              0 cycles
       Load & Compute & Store:      0 cycles
   Executed Nodes:                  10930 cycles
       Load Only:                   0 cycles
       Store Only:                  4 cycles
       Compute Only:                1 cycles
       Compute & Store:             21 cycles
       Load & Store:                0 cycles
       Load & Compute:              6 cycles
       Load & Compute & Store:      10898 cycles

   ========= Runtime FU's ========= (Max | Avg) ===
   Counter FU's:                      32 | 0.046838
   Integer Add/Sub FU's:               0 | 0.000000
   Integer Mul/Div FU's:               0 | 0.000000
   Integer Shifter FU's:               0 | 0.000000
   Integer Bitwise FU's:               1 | 0.000091
   Floating Point Float Add/Sub:       0 | 0.000000
   Floating Point Double Add/Sub:      0 | 0.000000
   Floating Point Float Mul/Div:      34 | 0.044252
   Floating Point Double Mul/Div:      0 | 0.000000
   0 Cycle Compare FU's:             102 | 0.046945
   GEP Instruction FU's:              96 | 0.046835
   Type Conversion FU's:               7 | 0.006782

   ========= Static FU's ==========================
   Counter FU's:                    0
   Integer Add/Sub FU's:            0
   Integer Mul/Div FU's:            0
   Integer Shifter FU's:            0
   Integer Bitwise FU's:            0
   Floating Point Float Add/Sub:    0
   Floating Point Double Add/Sub:   0
   Floating Point Float Mul/Div:    0
   Floating Point Double Mul/Div:   0
   0 Cycle Compare FU's:            0
   GEP Instruction FU's:            0
   Type Conversion FU's:            0
   Other:                           0

   ========= Pipeline Register Usage =============
   Total Number of Registers:       5641
   Max Register Usage Per Cycle:    137
   Avg Register Usage Per Cycle:    12.130992
   Avg Register Size (Bytes):       5.980606

   ========= Memory Configuration =================
   Cache Bus Ports:                 0
   Shared Cache Size:               0kB
   Local Bus Ports:                 0
   Private SPM Size:                256kB
   Private Read Ports:              0
   Private Write Ports:             0
   Private Read Bus Width:          64
   Private Write Bus Width:         64
       Memory Reads:                0
       Memory Writes:               0
   ========= Power Analysis ======================
   FU Leakage Power:                0.045377 mW 
   FU Dynamic Power:                0.142576 mW 
   FU Total Power:                  0.187953 mW 

   Registers Leakage Power:          0.005281 mW 
   Registers Dynamic Power:          0.015326 mW 
       Register Reads (Bits):        132616
       Register Writes (Bits):       133658
   Registers Total Power:            0.020607 mW

   SPM Leakage Power:               0.104100 mW
   SPM Read Dynamic Power:          4.784107 mW
   SPM Write Dynamic Power:         3.448926 mW
   SPM Total Power:                 8.337133 mW

   Cache Leakage Power:             0.000000 mW
   Cache Read Dynamic Power:        0.000000 mW
   Cache Write Dynamic Power:       0.000000 mW
   Cache Total Power:               0.000000 mW

   Accelerator Power:               0.208559 mW
   Accelerator Power (SPM):         8.545693 mW
   Accelerator Power (Cache):       0.208559 mW

   ========= Area Analysis =======================
   FU Area:                         5472.068359 um^2 (0.005472 mm^2)
   Register Area:                   429.271088 um^2 (0.000429 mm^2)
   SPM Area:                        2177.365505 um^2 (0.002177 mm^2)
   Cache Area:                      0.000000 um^2 (0.000000 mm^2)

   Accelerator Area:                5901.339355 um^2 (0.005901 mm^2)
   Accelerator Area (SPM):          8078.704860 um^2 (0.008079 mm^2)
   Accelerator Area (Cache):        5901.339355 um^2 (0.005901 mm^2)

   ========= SPM Resizing  =======================
   SPM Optimized Leakage Power:     0.004248 mW
   SPM Opt Area:                    178.524902 um^2

7399597500: global: Timer #0 started at tick 7399597500
7399975000: global: Timer #2 started at tick 7399975000
7400317500: global: Timer #2 stopped at tick 7400317500. Duration: 342500
7400561875: global: DAG ID = 1
7400575625: global: Node ID = 8
7400588750: global: Node deadline difference = -2306
7400601250: global: Predicted memory time / byte = 0.000184555 us/byte
7400613750: global: Predicted memory time = 24.19 us
7400626250: global: Predicted memory time / byte = 0.000184555 us/byte
7400638750: global: Predicted memory time = 12.095 us
7400651250: global: Predicted memory time / byte = 0.00018338 us/byte
7400663750: global: Predicted memory time = 12.018 us
7400676250: global: Predicted memory time / byte = 0 us/byte
7400688750: global: Predicted memory time = 0 us
7400701250: global: Predicted memory access size = 0
7400713750: global: Predicted memory access size = 65536
7400726250: global: Predicted memory access size = 0
7400738750: global: Predicted memory access size = 0
7414120875: system.acctest.elem_matrix0_dma: SRC:0x000000008212e240, DST:0x0000000024000020, LEN:65536
7414323125: global: Timer #0 stopped at tick 7414323125. Duration: 14725625
7414339375: global: Number of accelerators running = 2
7426086875: system.acctest.elem_matrix0_dma: Transfer completed in 11.966 us
7426249375: global: Timer #0 started at tick 7426249375
7426706250: global: Timer #1 started at tick 7426706250
7426934375: global: Timer #1 stopped at tick 7426934375. Duration: 228125
7428457500: global: Timer #0 stopped at tick 7428457500. Duration: 2208125
7428473750: global: Number of accelerators running = 2
********************************************************************************
system.acctest.elem_matrix0.compute
   ========= Performance Analysis =============
   Setup Time:                      7.450744seconds
   Simulation Time:                 195.162563seconds
   System Clock:                    1.000000GHz
   Transistor Latency:              1ns
   Runtime:                         10932 cycles
   Runtime:                         10.932000 us
   Stalls:                          0 cycles
   Executed Nodes:                  10931 cycles

********************************************************************************
   ========= Performance Analysis =================
   Setup Time:                      7450744461.000000ns
   Simulation Time:                 195162562812.000000ns
   System Clock:                    1.000000GHz
   Transistor Latency:              0ns
   Runtime:                         10932 cycles
   Runtime:                         0.000001 seconds
   Stalls:                          0 cycles
       Load Only:                   0 cycles
       Store Only:                  0 cycles
       Compute Only:                0 cycles
       Compute & Store:             0 cycles
       Load & Store:                0 cycles
       Load & Compute:              0 cycles
       Load & Compute & Store:      0 cycles
   Executed Nodes:                  10931 cycles
       Load Only:                   0 cycles
       Store Only:                  5 cycles
       Compute Only:                1 cycles
       Compute & Store:             21 cycles
       Load & Store:                0 cycles
       Load & Compute:              7 cycles
       Load & Compute & Store:      10897 cycles

   ========= Runtime FU's ========= (Max | Avg) ===
   Counter FU's:                      32 | 0.046838
   Integer Add/Sub FU's:               0 | 0.000000
   Integer Mul/Div FU's:               0 | 0.000000
   Integer Shifter FU's:               0 | 0.000000
   Integer Bitwise FU's:               1 | 0.000091
   Floating Point Float Add/Sub:      34 | 0.044252
   Floating Point Double Add/Sub:      0 | 0.000000
   Floating Point Float Mul/Div:       0 | 0.000000
   Floating Point Double Mul/Div:      0 | 0.000000
   0 Cycle Compare FU's:             102 | 0.046974
   GEP Instruction FU's:              96 | 0.046835
   Type Conversion FU's:               7 | 0.006782

   ========= Static FU's ==========================
   Counter FU's:                    0
   Integer Add/Sub FU's:            0
   Integer Mul/Div FU's:            0
   Integer Shifter FU's:            0
   Integer Bitwise FU's:            0
   Floating Point Float Add/Sub:    0
   Floating Point Double Add/Sub:   0
   Floating Point Float Mul/Div:    0
   Floating Point Double Mul/Div:   0
   0 Cycle Compare FU's:            0
   GEP Instruction FU's:            0
   Type Conversion FU's:            0
   Other:                           0

   ========= Pipeline Register Usage =============
   Total Number of Registers:       5641
   Max Register Usage Per Cycle:    138
   Avg Register Usage Per Cycle:    12.130992
   Avg Register Size (Bytes):       5.980606

   ========= Memory Configuration =================
   Cache Bus Ports:                 0
   Shared Cache Size:               0kB
   Local Bus Ports:                 0
   Private SPM Size:                256kB
   Private Read Ports:              0
   Private Write Ports:             0
   Private Read Bus Width:          64
   Private Write Bus Width:         64
       Memory Reads:                0
       Memory Writes:               0
   ========= Power Analysis ======================
   FU Leakage Power:                0.519269 mW 
   FU Dynamic Power:                0.154621 mW 
   FU Total Power:                  0.673890 mW 

   Registers Leakage Power:          0.005281 mW 
   Registers Dynamic Power:          0.015326 mW 
       Register Reads (Bits):        132616
       Register Writes (Bits):       133658
   Registers Total Power:            0.020607 mW

   SPM Leakage Power:               0.104100 mW
   SPM Read Dynamic Power:          5.190014 mW
   SPM Write Dynamic Power:         3.846212 mW
   SPM Total Power:                 9.140327 mW

   Cache Leakage Power:             0.000000 mW
   Cache Read Dynamic Power:        0.000000 mW
   Cache Write Dynamic Power:       0.000000 mW
   Cache Total Power:               0.000000 mW

   Accelerator Power:               0.694497 mW
   Accelerator Power (SPM):         9.834824 mW
   Accelerator Power (Cache):       0.694497 mW

   ========= Area Analysis =======================
   FU Area:                         70212.562500 um^2 (0.070213 mm^2)
   Register Area:                   429.271088 um^2 (0.000429 mm^2)
   SPM Area:                        2177.365505 um^2 (0.002177 mm^2)
   Cache Area:                      0.000000 um^2 (0.000000 mm^2)

   Accelerator Area:                70641.835938 um^2 (0.070642 mm^2)
   Accelerator Area (SPM):          72819.201442 um^2 (0.072819 mm^2)
   Accelerator Area (Cache):        70641.835938 um^2 (0.070642 mm^2)

   ========= SPM Resizing  =======================
   SPM Optimized Leakage Power:     0.004248 mW
   SPM Opt Area:                    178.524902 um^2

7439227500: global: Timer #0 started at tick 7439227500
7439521250: global: Timer #2 started at tick 7439521250
7439871250: global: Timer #2 stopped at tick 7439871250. Duration: 350000
7453084500: system.acctest.elem_matrix0_dma: SRC:0x0000000024010020, DST:0x00000000821ce240, LEN:65536
7453449375: global: Timer #0 stopped at tick 7453449375. Duration: 14221875
7453465625: global: Number of accelerators running = 2
7459439500: system.acctest.elem_matrix0_dma: Transfer completed in 6.355 us
7459515000: global: Timer #0 started at tick 7459515000
7459843125: global: Timer #1 started at tick 7459843125
7459905000: global: Timer #1 stopped at tick 7459905000. Duration: 61875
7460142500: global: DAG ID = 1
7460156250: global: Node ID = 9
7460174375: global: Node deadline difference = -2303
7460186875: global: Predicted memory time / byte = 0.00018338 us/byte
7460199375: global: Predicted memory time = 24.036 us
7460211875: global: Predicted memory time / byte = 0.00018338 us/byte
7460224375: global: Predicted memory time = 12.018 us
7460236875: global: Predicted memory time / byte = 0.000184448 us/byte
7460249375: global: Predicted memory time = 12.088 us
7460261875: global: Predicted memory time / byte = 9.68323e-05 us/byte
7460274375: global: Predicted memory time = 6.346 us
7460286875: global: Predicted memory access size = 0
7460299375: global: Predicted memory access size = 65536
7460311875: global: Predicted memory access size = 0
7460324375: global: Predicted memory access size = 65536
7473784500: system.acctest.elem_matrix0_dma: SRC:0x000000008222e400, DST:0x0000000024000020, LEN:65536
7473988750: global: Timer #0 stopped at tick 7473988750. Duration: 14473750
7474005000: global: Number of accelerators running = 2
7485725500: system.acctest.elem_matrix0_dma: Transfer completed in 11.941 us
7485844375: global: Timer #0 started at tick 7485844375
7486291250: global: Timer #1 started at tick 7486291250
7486519375: global: Timer #1 stopped at tick 7486519375. Duration: 228125
7500012375: system.acctest.elem_matrix0_dma: SRC:0x00000000820ce0c0, DST:0x0000000024010020, LEN:65536
7500235000: global: Timer #0 stopped at tick 7500235000. Duration: 14390625
7500251250: global: Number of accelerators running = 2
7512241375: system.acctest.elem_matrix0_dma: Transfer completed in 12.229 us
7512317500: global: Timer #0 started at tick 7512317500
7512813125: global: Timer #1 started at tick 7512813125
7512996875: global: Timer #1 stopped at tick 7512996875. Duration: 183750
7514605000: global: Timer #0 stopped at tick 7514605000. Duration: 2287500
7514621250: global: Number of accelerators running = 2
********************************************************************************
system.acctest.elem_matrix0.compute
   ========= Performance Analysis =============
   Setup Time:                      7.127326seconds
   Simulation Time:                 188.560917seconds
   System Clock:                    1.000000GHz
   Transistor Latency:              1ns
   Runtime:                         10932 cycles
   Runtime:                         10.932000 us
   Stalls:                          1 cycles
   Executed Nodes:                  10930 cycles

********************************************************************************
   ========= Performance Analysis =================
   Setup Time:                      7127325575.000000ns
   Simulation Time:                 188560917386.000000ns
   System Clock:                    1.000000GHz
   Transistor Latency:              0ns
   Runtime:                         10932 cycles
   Runtime:                         0.000001 seconds
   Stalls:                          1 cycles
       Load Only:                   0 cycles
       Store Only:                  1 cycles
       Compute Only:                0 cycles
       Compute & Store:             0 cycles
       Load & Store:                0 cycles
       Load & Compute:              0 cycles
       Load & Compute & Store:      0 cycles
   Executed Nodes:                  10930 cycles
       Load Only:                   0 cycles
       Store Only:                  4 cycles
       Compute Only:                1 cycles
       Compute & Store:             21 cycles
       Load & Store:                0 cycles
       Load & Compute:              6 cycles
       Load & Compute & Store:      10898 cycles

   ========= Runtime FU's ========= (Max | Avg) ===
   Counter FU's:                      32 | 0.046838
   Integer Add/Sub FU's:               0 | 0.000000
   Integer Mul/Div FU's:               0 | 0.000000
   Integer Shifter FU's:               0 | 0.000000
   Integer Bitwise FU's:               1 | 0.000091
   Floating Point Float Add/Sub:       0 | 0.000000
   Floating Point Double Add/Sub:      0 | 0.000000
   Floating Point Float Mul/Div:      34 | 0.044252
   Floating Point Double Mul/Div:      0 | 0.000000
   0 Cycle Compare FU's:             102 | 0.046945
   GEP Instruction FU's:              96 | 0.046835
   Type Conversion FU's:               7 | 0.006782

   ========= Static FU's ==========================
   Counter FU's:                    0
   Integer Add/Sub FU's:            0
   Integer Mul/Div FU's:            0
   Integer Shifter FU's:            0
   Integer Bitwise FU's:            0
   Floating Point Float Add/Sub:    0
   Floating Point Double Add/Sub:   0
   Floating Point Float Mul/Div:    0
   Floating Point Double Mul/Div:   0
   0 Cycle Compare FU's:            0
   GEP Instruction FU's:            0
   Type Conversion FU's:            0
   Other:                           0

   ========= Pipeline Register Usage =============
   Total Number of Registers:       5641
   Max Register Usage Per Cycle:    137
   Avg Register Usage Per Cycle:    12.130992
   Avg Register Size (Bytes):       5.980606

   ========= Memory Configuration =================
   Cache Bus Ports:                 0
   Shared Cache Size:               0kB
   Local Bus Ports:                 0
   Private SPM Size:                256kB
   Private Read Ports:              0
   Private Write Ports:             0
   Private Read Bus Width:          64
   Private Write Bus Width:         64
       Memory Reads:                0
       Memory Writes:               0
   ========= Power Analysis ======================
   FU Leakage Power:                0.045377 mW 
   FU Dynamic Power:                0.142576 mW 
   FU Total Power:                  0.187953 mW 

   Registers Leakage Power:          0.005281 mW 
   Registers Dynamic Power:          0.015326 mW 
       Register Reads (Bits):        132616
       Register Writes (Bits):       133658
   Registers Total Power:            0.020607 mW

   SPM Leakage Power:               0.104100 mW
   SPM Read Dynamic Power:          5.599688 mW
   SPM Write Dynamic Power:         4.937352 mW
   SPM Total Power:                 10.641140 mW

   Cache Leakage Power:             0.000000 mW
   Cache Read Dynamic Power:        0.000000 mW
   Cache Write Dynamic Power:       0.000000 mW
   Cache Total Power:               0.000000 mW

   Accelerator Power:               0.208559 mW
   Accelerator Power (SPM):         10.849700 mW
   Accelerator Power (Cache):       0.208559 mW

   ========= Area Analysis =======================
   FU Area:                         5472.068359 um^2 (0.005472 mm^2)
   Register Area:                   429.271088 um^2 (0.000429 mm^2)
   SPM Area:                        2177.365505 um^2 (0.002177 mm^2)
   Cache Area:                      0.000000 um^2 (0.000000 mm^2)

   Accelerator Area:                5901.339355 um^2 (0.005901 mm^2)
   Accelerator Area (SPM):          8078.704860 um^2 (0.008079 mm^2)
   Accelerator Area (Cache):        5901.339355 um^2 (0.005901 mm^2)

   ========= SPM Resizing  =======================
   SPM Optimized Leakage Power:     0.004248 mW
   SPM Opt Area:                    178.524902 um^2

7525382500: global: Timer #0 started at tick 7525382500
7525683125: global: Timer #2 started at tick 7525683125
7526042500: global: Timer #2 stopped at tick 7526042500. Duration: 359375
7539237375: system.acctest.elem_matrix0_dma: SRC:0x0000000024020020, DST:0x000000008214e240, LEN:65536
7539587500: global: Timer #0 stopped at tick 7539587500. Duration: 14205000
7539603750: global: Number of accelerators running = 2
7545531375: system.acctest.elem_matrix0_dma: Transfer completed in 6.294 us
7545607500: global: Timer #0 started at tick 7545607500
7545927500: global: Timer #1 started at tick 7545927500
7545989375: global: Timer #1 stopped at tick 7545989375. Duration: 61875
7546209375: global: DAG ID = 1
7546223125: global: Node ID = 1
7546241250: global: Node deadline difference = -2275
7546253750: global: Predicted memory time / byte = 0.000188019 us/byte
7546266250: global: Predicted memory time = 24.644 us
7546278750: global: Predicted memory time / byte = 0.000188019 us/byte
7546291250: global: Predicted memory time = 12.322 us
7546303750: global: Predicted memory time / byte = 0.000185623 us/byte
7546316250: global: Predicted memory time = 24.33 us
7546328750: global: Predicted memory time / byte = 9.59015e-05 us/byte
7546341250: global: Predicted memory time = 6.285 us
7546353750: global: Predicted memory access size = 0
7546366250: global: Predicted memory access size = 131072
7546378750: global: Predicted memory access size = 0
7546391250: global: Predicted memory access size = 65536
7559814500: system.acctest.elem_matrix0_dma: SRC:0x00000000821ce240, DST:0x0000000024000020, LEN:65536
7560015625: global: Timer #0 stopped at tick 7560015625. Duration: 14408125
7560031875: global: Number of accelerators running = 2
7571771500: system.acctest.elem_matrix0_dma: Transfer completed in 11.957 us
7571890000: global: Timer #0 started at tick 7571890000
7572336250: global: Timer #1 started at tick 7572336250
7572564375: global: Timer #1 stopped at tick 7572564375. Duration: 228125
7586055875: system.acctest.elem_matrix0_dma: SRC:0x000000008210e0c0, DST:0x0000000024010020, LEN:65536
7586278125: global: Timer #0 stopped at tick 7586278125. Duration: 14388125
7586294375: global: Number of accelerators running = 2
7598000875: system.acctest.elem_matrix0_dma: Transfer completed in 11.945 us
7598077500: global: Timer #0 started at tick 7598077500
7598568125: global: Timer #1 started at tick 7598568125
7598751875: global: Timer #1 stopped at tick 7598751875. Duration: 183750
7600313750: global: Timer #0 stopped at tick 7600313750. Duration: 2236250
7600330000: global: Number of accelerators running = 2
********************************************************************************
system.acctest.elem_matrix0.compute
   ========= Performance Analysis =============
   Setup Time:                      7.468366seconds
   Simulation Time:                 190.289003seconds
   System Clock:                    1.000000GHz
   Transistor Latency:              1ns
   Runtime:                         10932 cycles
   Runtime:                         10.932000 us
   Stalls:                          1 cycles
   Executed Nodes:                  10930 cycles

********************************************************************************
   ========= Performance Analysis =================
   Setup Time:                      7468365857.000000ns
   Simulation Time:                 190289002684.000000ns
   System Clock:                    1.000000GHz
   Transistor Latency:              0ns
   Runtime:                         10932 cycles
   Runtime:                         0.000001 seconds
   Stalls:                          1 cycles
       Load Only:                   0 cycles
       Store Only:                  1 cycles
       Compute Only:                0 cycles
       Compute & Store:             0 cycles
       Load & Store:                0 cycles
       Load & Compute:              0 cycles
       Load & Compute & Store:      0 cycles
   Executed Nodes:                  10930 cycles
       Load Only:                   0 cycles
       Store Only:                  4 cycles
       Compute Only:                1 cycles
       Compute & Store:             21 cycles
       Load & Store:                0 cycles
       Load & Compute:              6 cycles
       Load & Compute & Store:      10898 cycles

   ========= Runtime FU's ========= (Max | Avg) ===
   Counter FU's:                      32 | 0.046838
   Integer Add/Sub FU's:               0 | 0.000000
   Integer Mul/Div FU's:               0 | 0.000000
   Integer Shifter FU's:               0 | 0.000000
   Integer Bitwise FU's:               1 | 0.000091
   Floating Point Float Add/Sub:       0 | 0.000000
   Floating Point Double Add/Sub:      0 | 0.000000
   Floating Point Float Mul/Div:      34 | 0.044252
   Floating Point Double Mul/Div:      0 | 0.000000
   0 Cycle Compare FU's:             102 | 0.046945
   GEP Instruction FU's:              96 | 0.046835
   Type Conversion FU's:               7 | 0.006782

   ========= Static FU's ==========================
   Counter FU's:                    0
   Integer Add/Sub FU's:            0
   Integer Mul/Div FU's:            0
   Integer Shifter FU's:            0
   Integer Bitwise FU's:            0
   Floating Point Float Add/Sub:    0
   Floating Point Double Add/Sub:   0
   Floating Point Float Mul/Div:    0
   Floating Point Double Mul/Div:   0
   0 Cycle Compare FU's:            0
   GEP Instruction FU's:            0
   Type Conversion FU's:            0
   Other:                           0

   ========= Pipeline Register Usage =============
   Total Number of Registers:       5641
   Max Register Usage Per Cycle:    137
   Avg Register Usage Per Cycle:    12.130992
   Avg Register Size (Bytes):       5.980606

   ========= Memory Configuration =================
   Cache Bus Ports:                 0
   Shared Cache Size:               0kB
   Local Bus Ports:                 0
   Private SPM Size:                256kB
   Private Read Ports:              0
   Private Write Ports:             0
   Private Read Bus Width:          64
   Private Write Bus Width:         64
       Memory Reads:                0
       Memory Writes:               0
   ========= Power Analysis ======================
   FU Leakage Power:                0.045377 mW 
   FU Dynamic Power:                0.142576 mW 
   FU Total Power:                  0.187953 mW 

   Registers Leakage Power:          0.005281 mW 
   Registers Dynamic Power:          0.015326 mW 
       Register Reads (Bits):        132616
       Register Writes (Bits):       133658
   Registers Total Power:            0.020607 mW

   SPM Leakage Power:               0.104100 mW
   SPM Read Dynamic Power:          6.009405 mW
   SPM Write Dynamic Power:         4.673423 mW
   SPM Total Power:                 10.786928 mW

   Cache Leakage Power:             0.000000 mW
   Cache Read Dynamic Power:        0.000000 mW
   Cache Write Dynamic Power:       0.000000 mW
   Cache Total Power:               0.000000 mW

   Accelerator Power:               0.208559 mW
   Accelerator Power (SPM):         10.995488 mW
   Accelerator Power (Cache):       0.208559 mW

   ========= Area Analysis =======================
   FU Area:                         5472.068359 um^2 (0.005472 mm^2)
   Register Area:                   429.271088 um^2 (0.000429 mm^2)
   SPM Area:                        2177.365505 um^2 (0.002177 mm^2)
   Cache Area:                      0.000000 um^2 (0.000000 mm^2)

   Accelerator Area:                5901.339355 um^2 (0.005901 mm^2)
   Accelerator Area (SPM):          8078.704860 um^2 (0.008079 mm^2)
   Accelerator Area (Cache):        5901.339355 um^2 (0.005901 mm^2)

   ========= SPM Resizing  =======================
   SPM Optimized Leakage Power:     0.004248 mW
   SPM Opt Area:                    178.524902 um^2

7611097500: global: Timer #0 started at tick 7611097500
7611390000: global: Timer #2 started at tick 7611390000
7611682500: global: Timer #2 stopped at tick 7611682500. Duration: 292500
7624869500: system.acctest.elem_matrix0_dma: SRC:0x0000000024020020, DST:0x00000000821de240, LEN:65536
7625219375: global: Timer #0 stopped at tick 7625219375. Duration: 14121875
7625235625: global: Number of accelerators running = 2
7631154500: system.acctest.elem_matrix0_dma: Transfer completed in 6.285 us
7631230000: global: Timer #0 started at tick 7631230000
7631550000: global: Timer #1 started at tick 7631550000
7631611875: global: Timer #1 stopped at tick 7631611875. Duration: 61875
7631832500: global: DAG ID = 1
7631846250: global: Node ID = 10
7631864375: global: Node deadline difference = -2190
7631876875: global: Predicted memory time / byte = 0.000184448 us/byte
7631889375: global: Predicted memory time = 24.176 us
7631901875: global: Predicted memory time / byte = 0.000184448 us/byte
7631914375: global: Predicted memory time = 12.088 us
7631926875: global: Predicted memory time / byte = 0.000183548 us/byte
7631939375: global: Predicted memory time = 24.058 us
7631951875: global: Predicted memory time / byte = 9.57642e-05 us/byte
7631964375: global: Predicted memory time = 6.276 us
7631976875: global: Predicted memory access size = 0
7631989375: global: Predicted memory access size = 131072
7632001875: global: Predicted memory access size = 0
7632014375: global: Predicted memory access size = 65536
7645435875: system.acctest.elem_matrix0_dma: SRC:0x000000008214e240, DST:0x0000000024000020, LEN:65536
7645636875: global: Timer #0 stopped at tick 7645636875. Duration: 14406875
7645653125: global: Number of accelerators running = 2
7657398875: system.acctest.elem_matrix0_dma: Transfer completed in 11.963 us
7657518125: global: Timer #0 started at tick 7657518125
7657964375: global: Timer #1 started at tick 7657964375
7658193750: global: Timer #1 stopped at tick 7658193750. Duration: 229375
7671671625: system.acctest.elem_matrix0_dma: SRC:0x00000000820de0c0, DST:0x0000000024010020, LEN:65536
7671894375: global: Timer #0 stopped at tick 7671894375. Duration: 14376250
7671910625: global: Number of accelerators running = 2
7683655625: system.acctest.elem_matrix0_dma: Transfer completed in 11.984 us
7683731250: global: Timer #0 started at tick 7683731250
7684223125: global: Timer #1 started at tick 7684223125
7684406875: global: Timer #1 stopped at tick 7684406875. Duration: 183750
7685963750: global: Timer #0 stopped at tick 7685963750. Duration: 2232500
7685980000: global: Number of accelerators running = 2
********************************************************************************
system.acctest.elem_matrix0.compute
   ========= Performance Analysis =============
   Setup Time:                      8.544879seconds
   Simulation Time:                 193.387673seconds
   System Clock:                    1.000000GHz
   Transistor Latency:              1ns
   Runtime:                         10932 cycles
   Runtime:                         10.932000 us
   Stalls:                          0 cycles
   Executed Nodes:                  10931 cycles

********************************************************************************
   ========= Performance Analysis =================
   Setup Time:                      8544879141.999999ns
   Simulation Time:                 193387672887.000000ns
   System Clock:                    1.000000GHz
   Transistor Latency:              0ns
   Runtime:                         10932 cycles
   Runtime:                         0.000001 seconds
   Stalls:                          0 cycles
       Load Only:                   0 cycles
       Store Only:                  0 cycles
       Compute Only:                0 cycles
       Compute & Store:             0 cycles
       Load & Store:                0 cycles
       Load & Compute:              0 cycles
       Load & Compute & Store:      0 cycles
   Executed Nodes:                  10931 cycles
       Load Only:                   0 cycles
       Store Only:                  5 cycles
       Compute Only:                1 cycles
       Compute & Store:             21 cycles
       Load & Store:                0 cycles
       Load & Compute:              7 cycles
       Load & Compute & Store:      10897 cycles

   ========= Runtime FU's ========= (Max | Avg) ===
   Counter FU's:                      32 | 0.046838
   Integer Add/Sub FU's:               0 | 0.000000
   Integer Mul/Div FU's:               0 | 0.000000
   Integer Shifter FU's:               0 | 0.000000
   Integer Bitwise FU's:               1 | 0.000091
   Floating Point Float Add/Sub:      34 | 0.044252
   Floating Point Double Add/Sub:      0 | 0.000000
   Floating Point Float Mul/Div:       0 | 0.000000
   Floating Point Double Mul/Div:      0 | 0.000000
   0 Cycle Compare FU's:             102 | 0.046974
   GEP Instruction FU's:              96 | 0.046835
   Type Conversion FU's:               7 | 0.006782

   ========= Static FU's ==========================
   Counter FU's:                    0
   Integer Add/Sub FU's:            0
   Integer Mul/Div FU's:            0
   Integer Shifter FU's:            0
   Integer Bitwise FU's:            0
   Floating Point Float Add/Sub:    0
   Floating Point Double Add/Sub:   0
   Floating Point Float Mul/Div:    0
   Floating Point Double Mul/Div:   0
   0 Cycle Compare FU's:            0
   GEP Instruction FU's:            0
   Type Conversion FU's:            0
   Other:                           0

   ========= Pipeline Register Usage =============
   Total Number of Registers:       5641
   Max Register Usage Per Cycle:    138
   Avg Register Usage Per Cycle:    12.130992
   Avg Register Size (Bytes):       5.980606

   ========= Memory Configuration =================
   Cache Bus Ports:                 0
   Shared Cache Size:               0kB
   Local Bus Ports:                 0
   Private SPM Size:                256kB
   Private Read Ports:              0
   Private Write Ports:             0
   Private Read Bus Width:          64
   Private Write Bus Width:         64
       Memory Reads:                0
       Memory Writes:               0
   ========= Power Analysis ======================
   FU Leakage Power:                0.519269 mW 
   FU Dynamic Power:                0.154621 mW 
   FU Total Power:                  0.673890 mW 

   Registers Leakage Power:          0.005281 mW 
   Registers Dynamic Power:          0.015326 mW 
       Register Reads (Bits):        132616
       Register Writes (Bits):       133658
   Registers Total Power:            0.020607 mW

   SPM Leakage Power:               0.104100 mW
   SPM Read Dynamic Power:          7.109320 mW
   SPM Write Dynamic Power:         4.890273 mW
   SPM Total Power:                 12.103693 mW

   Cache Leakage Power:             0.000000 mW
   Cache Read Dynamic Power:        0.000000 mW
[...]
       Load & Compute:              7 cycles
       Load & Compute & Store:      10897 cycles

   ========= Runtime FU's ========= (Max | Avg) ===
   Counter FU's:                      32 | 0.046838
   Integer Add/Sub FU's:               0 | 0.000000
   Integer Mul/Div FU's:               0 | 0.000000
   Integer Shifter FU's:               0 | 0.000000
   Integer Bitwise FU's:               1 | 0.000091
   Floating Point Float Add/Sub:      34 | 0.044252
   Floating Point Double Add/Sub:      0 | 0.000000
   Floating Point Float Mul/Div:       0 | 0.000000
   Floating Point Double Mul/Div:      0 | 0.000000
   0 Cycle Compare FU's:             102 | 0.046974
   GEP Instruction FU's:              96 | 0.046835
   Type Conversion FU's:               7 | 0.006782

   ========= Static FU's ==========================
   Counter FU's:                    0
   Integer Add/Sub FU's:            0
   Integer Mul/Div FU's:            0
   Integer Shifter FU's:            0
   Integer Bitwise FU's:            0
   Floating Point Float Add/Sub:    0
   Floating Point Double Add/Sub:   0
   Floating Point Float Mul/Div:    0
   Floating Point Double Mul/Div:   0
   0 Cycle Compare FU's:            0
   GEP Instruction FU's:            0
   Type Conversion FU's:            0
   Other:                           0

   ========= Pipeline Register Usage =============
   Total Number of Registers:       5641
   Max Register Usage Per Cycle:    138
   Avg Register Usage Per Cycle:    12.130992
   Avg Register Size (Bytes):       5.980606

   ========= Memory Configuration =================
   Cache Bus Ports:                 0
   Shared Cache Size:               0kB
   Local Bus Ports:                 0
   Private SPM Size:                256kB
   Private Read Ports:              0
   Private Write Ports:             0
   Private Read Bus Width:          64
   Private Write Bus Width:         64
       Memory Reads:                0
       Memory Writes:               0
   ========= Power Analysis ======================
   FU Leakage Power:                0.519269 mW 
   FU Dynamic Power:                0.154621 mW 
   FU Total Power:                  0.673890 mW 

   Registers Leakage Power:          0.005281 mW 
   Registers Dynamic Power:          0.015326 mW 
       Register Reads (Bits):        132616
       Register Writes (Bits):       133658
   Registers Total Power:            0.020607 mW

   SPM Leakage Power:               0.104100 mW
   SPM Read Dynamic Power:          34.311241 mW
   SPM Write Dynamic Power:         25.730745 mW
   SPM Total Power:                 60.146086 mW

   Cache Leakage Power:             0.000000 mW
   Cache Read Dynamic Power:        0.000000 mW
   Cache Write Dynamic Power:       0.000000 mW
   Cache Total Power:               0.000000 mW

   Accelerator Power:               0.694497 mW
   Accelerator Power (SPM):         60.840583 mW
   Accelerator Power (Cache):       0.694497 mW

   ========= Area Analysis =======================
   FU Area:                         70212.562500 um^2 (0.070213 mm^2)
   Register Area:                   429.271088 um^2 (0.000429 mm^2)
   SPM Area:                        2177.365505 um^2 (0.002177 mm^2)
   Cache Area:                      0.000000 um^2 (0.000000 mm^2)

   Accelerator Area:                70641.835938 um^2 (0.070642 mm^2)
   Accelerator Area (SPM):          72819.201442 um^2 (0.072819 mm^2)
   Accelerator Area (Cache):        70641.835938 um^2 (0.070642 mm^2)

   ========= SPM Resizing  =======================
   SPM Optimized Leakage Power:     0.004248 mW
   SPM Opt Area:                    178.524902 um^2

27425512500: global: Timer #0 started at tick 27425512500
27438802375: system.acctest.elem_matrix0_dma: SRC:0x0000000024020020, DST:0x0000000082937c40, LEN:65536
27439152500: global: Timer #0 stopped at tick 27439152500. Duration: 13640000
27439168750: global: Number of accelerators running = 1
27445097375: system.acctest.elem_matrix0_dma: Transfer completed in 6.295 us
27445174375: global: Timer #0 started at tick 27445174375
27445501875: global: Timer #1 started at tick 27445501875
27445555625: global: Timer #1 stopped at tick 27445555625. Duration: 53750
27445766875: global: DAG ID = 1
27445780625: global: Node ID = 119
27445804375: global: DAG execution time = 20270
27445817500: global: DAG deadline difference = 13270
27445834375: global: Node deadline difference = 13270
27445846875: global: Predicted memory time / byte = 0.000183609 us/byte
27445859375: global: Predicted memory time = 24.066 us
27445871875: global: Predicted memory time / byte = 0.000183609 us/byte
27445884375: global: Predicted memory time = 12.033 us
27445896875: global: Predicted memory time / byte = 0.000183746 us/byte
27445909375: global: Predicted memory time = 24.084 us
27445921875: global: Predicted memory time / byte = 9.57947e-05 us/byte
27445934375: global: Predicted memory time = 6.278 us
27445946875: global: Predicted memory access size = 0
27445959375: global: Predicted memory access size = 131072
27445971875: global: Predicted memory access size = 0
27445984375: global: Predicted memory access size = 65536
27459305875: system.acctest.elem_matrix0_dma: SRC:0x0000000083314b80, DST:0x0000000024000020, LEN:65536
27459520000: global: Timer #0 stopped at tick 27459520000. Duration: 14345625
27459536250: global: Number of accelerators running = 1
27471246875: system.acctest.elem_matrix0_dma: Transfer completed in 11.941 us
27471365000: global: Timer #0 started at tick 27471365000
27471848125: global: Timer #1 started at tick 27471848125
27472076875: global: Timer #1 stopped at tick 27472076875. Duration: 228750
27473529375: global: Timer #0 stopped at tick 27473529375. Duration: 2164375
27473545625: global: Number of accelerators running = 1
********************************************************************************
system.acctest.elem_matrix0.compute
   ========= Performance Analysis =============
   Setup Time:                      5.579303seconds
   Simulation Time:                 65.061607seconds
   System Clock:                    1.000000GHz
   Transistor Latency:              1ns
   Runtime:                         8344 cycles
   Runtime:                         8.344000 us
   Stalls:                          106 cycles
   Executed Nodes:                  8237 cycles

********************************************************************************
   ========= Performance Analysis =================
   Setup Time:                      5579302859.000000ns
   Simulation Time:                 65061607331.999992ns
   System Clock:                    1.000000GHz
   Transistor Latency:              0ns
   Runtime:                         8344 cycles
   Runtime:                         0.000001 seconds
   Stalls:                          106 cycles
       Load Only:                   0 cycles
       Store Only:                  101 cycles
       Compute Only:                0 cycles
       Compute & Store:             5 cycles
       Load & Store:                0 cycles
       Load & Compute:              0 cycles
       Load & Compute & Store:      0 cycles
   Executed Nodes:                  8237 cycles
       Load Only:                   0 cycles
       Store Only:                  11 cycles
       Compute Only:                2086 cycles
       Compute & Store:             3860 cycles
       Load & Store:                0 cycles
       Load & Compute:              519 cycles
       Load & Compute & Store:      1761 cycles

   ========= Runtime FU's ========= (Max | Avg) ===
   Counter FU's:                      32 | 0.061365
   Integer Add/Sub FU's:               0 | 0.000000
   Integer Mul/Div FU's:               0 | 0.000000
   Integer Shifter FU's:               0 | 0.000000
   Integer Bitwise FU's:               1 | 0.000120
   Floating Point Float Add/Sub:      76 | 0.476229
   Floating Point Double Add/Sub:      0 | 0.000000
   Floating Point Float Mul/Div:      53 | 0.193968
   Floating Point Double Mul/Div:      0 | 0.000000
   0 Cycle Compare FU's:              15 | 0.024744
   GEP Instruction FU's:              64 | 0.061361
   Type Conversion FU's:              60 | 0.132426

   ========= Static FU's ==========================
   Counter FU's:                    0
   Integer Add/Sub FU's:            0
   Integer Mul/Div FU's:            0
   Integer Shifter FU's:            0
   Integer Bitwise FU's:            0
   Floating Point Float Add/Sub:    0
   Floating Point Double Add/Sub:   0
   Floating Point Float Mul/Div:    0
   Floating Point Double Mul/Div:   0
   0 Cycle Compare FU's:            0
   GEP Instruction FU's:            0
   Type Conversion FU's:            0
   Other:                           0

   ========= Pipeline Register Usage =============
   Total Number of Registers:       5641
   Max Register Usage Per Cycle:    131
   Avg Register Usage Per Cycle:    31.540748
   Avg Register Size (Bytes):       5.745110

   ========= Memory Configuration =================
   Cache Bus Ports:                 0
   Shared Cache Size:               0kB
   Local Bus Ports:                 0
   Private SPM Size:                256kB
   Private Read Ports:              0
   Private Write Ports:             0
   Private Read Bus Width:          64
   Private Write Bus Width:         64
       Memory Reads:                0
       Memory Writes:               0
   ========= Power Analysis ======================
   FU Leakage Power:                1.204730 mW 
   FU Dynamic Power:                1.740443 mW 
   FU Total Power:                  2.945173 mW 

   Registers Leakage Power:          0.013106 mW 
   Registers Dynamic Power:          0.057551 mW 
       Register Reads (Bits):        263176
       Register Writes (Bits):       264729
   Registers Total Power:            0.070657 mW

   SPM Leakage Power:               0.104100 mW
   SPM Read Dynamic Power:          34.336271 mW
   SPM Write Dynamic Power:         25.782339 mW
   SPM Total Power:                 60.222710 mW

   Cache Leakage Power:             0.000000 mW
   Cache Read Dynamic Power:        0.000000 mW
   Cache Write Dynamic Power:       0.000000 mW
   Cache Total Power:               0.000000 mW

   Accelerator Power:               3.015830 mW
   Accelerator Power (SPM):         63.238540 mW
   Accelerator Power (Cache):       3.015830 mW

   ========= Area Analysis =======================
   FU Area:                         162305.218750 um^2 (0.162305 mm^2)
   Register Area:                   1065.283691 um^2 (0.001065 mm^2)
   SPM Area:                        2177.365505 um^2 (0.002177 mm^2)
   Cache Area:                      0.000000 um^2 (0.000000 mm^2)

   Accelerator Area:                163370.500000 um^2 (0.163371 mm^2)
   Accelerator Area (SPM):          165547.865505 um^2 (0.165548 mm^2)
   Accelerator Area (Cache):        163370.500000 um^2 (0.163371 mm^2)

   ========= SPM Resizing  =======================
   SPM Optimized Leakage Power:     0.004070 mW
   SPM Opt Area:                    175.836670 um^2

27481716250: global: Timer #0 started at tick 27481716250
27482001250: global: Timer #2 started at tick 27482001250
27482293750: global: Timer #2 stopped at tick 27482293750. Duration: 292500
27482536875: global: DAG ID = 2
27482550625: global: Node ID = 142
27482563750: global: Node deadline difference = 13366
27482576250: global: Predicted memory time / byte = 0.000184128 us/byte
27482588750: global: Predicted memory time = 12.067 us
27482601250: global: Predicted memory time / byte = 0.000184128 us/byte
27482613750: global: Predicted memory time = 12.067 us
27482626250: global: Predicted memory time / byte = 0.000183945 us/byte
27482638750: global: Predicted memory time = 12.055 us
27482651250: global: Predicted memory time / byte = 0 us/byte
27482663750: global: Predicted memory time = 0 us
27482676250: global: Predicted memory access size = 0
27482688750: global: Predicted memory access size = 65536
27482701250: global: Predicted memory access size = 0
27482713750: global: Predicted memory access size = 0
27496157375: system.acctest.elem_matrix0_dma: SRC:0x0000000083344b80, DST:0x0000000024000020, LEN:65536
27496383125: global: Timer #0 stopped at tick 27496383125. Duration: 14666875
27496399375: global: Number of accelerators running = 1
27508354375: system.acctest.elem_matrix0_dma: Transfer completed in 12.197 us
27508562500: global: Timer #0 started at tick 27508562500
27508960000: global: Timer #1 started at tick 27508960000
27509188750: global: Timer #1 stopped at tick 27509188750. Duration: 228750
27510720625: global: Timer #0 stopped at tick 27510720625. Duration: 2158125
27510736875: global: Number of accelerators running = 1
********************************************************************************
system.acctest.elem_matrix0.compute
   ========= Performance Analysis =============
   Setup Time:                      5.489734seconds
   Simulation Time:                 78.380695seconds
   System Clock:                    1.000000GHz
   Transistor Latency:              1ns
   Runtime:                         10932 cycles
   Runtime:                         10.932000 us
   Stalls:                          1 cycles
   Executed Nodes:                  10930 cycles

********************************************************************************
   ========= Performance Analysis =================
   Setup Time:                      5489733645.000000ns
   Simulation Time:                 78380694958.000000ns
   System Clock:                    1.000000GHz
   Transistor Latency:              0ns
   Runtime:                         10932 cycles
   Runtime:                         0.000001 seconds
   Stalls:                          1 cycles
       Load Only:                   0 cycles
       Store Only:                  1 cycles
       Compute Only:                0 cycles
       Compute & Store:             0 cycles
       Load & Store:                0 cycles
       Load & Compute:              0 cycles
       Load & Compute & Store:      0 cycles
   Executed Nodes:                  10930 cycles
       Load Only:                   0 cycles
       Store Only:                  4 cycles
       Compute Only:                1 cycles
       Compute & Store:             21 cycles
       Load & Store:                0 cycles
       Load & Compute:              6 cycles
       Load & Compute & Store:      10898 cycles

   ========= Runtime FU's ========= (Max | Avg) ===
   Counter FU's:                      32 | 0.046838
   Integer Add/Sub FU's:               0 | 0.000000
   Integer Mul/Div FU's:               0 | 0.000000
   Integer Shifter FU's:               0 | 0.000000
   Integer Bitwise FU's:               1 | 0.000091
   Floating Point Float Add/Sub:       0 | 0.000000
   Floating Point Double Add/Sub:      0 | 0.000000
   Floating Point Float Mul/Div:      34 | 0.044252
   Floating Point Double Mul/Div:      0 | 0.000000
   0 Cycle Compare FU's:             102 | 0.046945
   GEP Instruction FU's:              96 | 0.046835
   Type Conversion FU's:               7 | 0.006782

   ========= Static FU's ==========================
   Counter FU's:                    0
   Integer Add/Sub FU's:            0
   Integer Mul/Div FU's:            0
   Integer Shifter FU's:            0
   Integer Bitwise FU's:            0
   Floating Point Float Add/Sub:    0
   Floating Point Double Add/Sub:   0
   Floating Point Float Mul/Div:    0
   Floating Point Double Mul/Div:   0
   0 Cycle Compare FU's:            0
   GEP Instruction FU's:            0
   Type Conversion FU's:            0
   Other:                           0

   ========= Pipeline Register Usage =============
   Total Number of Registers:       5641
   Max Register Usage Per Cycle:    137
   Avg Register Usage Per Cycle:    12.130992
   Avg Register Size (Bytes):       5.980606

   ========= Memory Configuration =================
   Cache Bus Ports:                 0
   Shared Cache Size:               0kB
   Local Bus Ports:                 0
   Private SPM Size:                256kB
   Private Read Ports:              0
   Private Write Ports:             0
   Private Read Bus Width:          64
   Private Write Bus Width:         64
       Memory Reads:                0
       Memory Writes:               0
   ========= Power Analysis ======================
   FU Leakage Power:                0.045377 mW 
   FU Dynamic Power:                0.142576 mW 
   FU Total Power:                  0.187953 mW 

   Registers Leakage Power:          0.005281 mW 
   Registers Dynamic Power:          0.015326 mW 
       Register Reads (Bits):        132616
       Register Writes (Bits):       133658
   Registers Total Power:            0.020607 mW

   SPM Leakage Power:               0.104100 mW
   SPM Read Dynamic Power:          34.386331 mW
   SPM Write Dynamic Power:         25.833933 mW
   SPM Total Power:                 60.324365 mW

   Cache Leakage Power:             0.000000 mW
   Cache Read Dynamic Power:        0.000000 mW
   Cache Write Dynamic Power:       0.000000 mW
   Cache Total Power:               0.000000 mW

   Accelerator Power:               0.208559 mW
   Accelerator Power (SPM):         60.532924 mW
   Accelerator Power (Cache):       0.208559 mW

   ========= Area Analysis =======================
   FU Area:                         5472.068359 um^2 (0.005472 mm^2)
   Register Area:                   429.271088 um^2 (0.000429 mm^2)
   SPM Area:                        2177.365505 um^2 (0.002177 mm^2)
   Cache Area:                      0.000000 um^2 (0.000000 mm^2)

   Accelerator Area:                5901.339355 um^2 (0.005901 mm^2)
   Accelerator Area (SPM):          8078.704860 um^2 (0.008079 mm^2)
   Accelerator Area (Cache):        5901.339355 um^2 (0.005901 mm^2)

   ========= SPM Resizing  =======================
   SPM Optimized Leakage Power:     0.004248 mW
   SPM Opt Area:                    178.524902 um^2

27521494375: global: Timer #0 started at tick 27521494375
27534800875: system.acctest.elem_matrix0_dma: SRC:0x0000000024020020, DST:0x0000000083364b80, LEN:65536
27535158125: global: Timer #0 stopped at tick 27535158125. Duration: 13663750
27535174375: global: Number of accelerators running = 1
27541175875: system.acctest.elem_matrix0_dma: Transfer completed in 6.375 us
27541252500: global: Timer #0 started at tick 27541252500
27541612500: global: Timer #1 started at tick 27541612500
27541712500: global: Timer #1 stopped at tick 27541712500. Duration: 100000
27541924375: global: DAG ID = 2
27541938125: global: Node ID = 143
27541961875: global: DAG execution time = 20366
27541975000: global: DAG deadline difference = 13366
27541991875: global: Node deadline difference = 13366
27542004375: global: Predicted memory time / byte = 0.000183945 us/byte
27542016875: global: Predicted memory time = 24.11 us
27542029375: global: Predicted memory time / byte = 0.000183945 us/byte
27542041875: global: Predicted memory time = 12.055 us
27542054375: global: Predicted memory time / byte = 0.000187881 us/byte
27542066875: global: Predicted memory time = 12.313 us
27542079375: global: Predicted memory time / byte = 9.77783e-05 us/byte
27542091875: global: Predicted memory time = 6.408 us
27542104375: global: Predicted memory access size = 0
27542116875: global: Predicted memory access size = 65536
27542129375: global: Predicted memory access size = 0
27542141875: global: Predicted memory access size = 65536
27542245625: global: Timer #0 stopped at tick 27542245625. Duration: 993125
27542261875: global: Number of accelerators running = 0
27542353125: global: Number of forwards = 24
27542488125: global: Number of colocations = 20
27542507500: global: Number of DAG deadlines met = 1
27542526875: global: Number of node deadlines met = 69
27542560625: global: Total predicted compute time = 6243 us
Exiting @ tick 27542810625 because m5_exit instruction encountered
