
---------- Begin Simulation Statistics ----------
final_tick                                25027299375                       # Number of ticks from beginning of simulation (restored from checkpoints and never reset)
host_inst_rate                                    200                       # Simulator instruction rate (inst/s)
host_mem_usage                                8940804                       # Number of bytes of host memory used
host_op_rate                                      206                       # Simulator op (including micro ops) rate (op/s)
host_seconds                                 35987.00                       # Real time elapsed on the host
host_tick_rate                                 525806                       # Simulator tick rate (ticks/s)
sim_freq                                 1000000000000                       # Frequency of simulated ticks
sim_insts                                     7214770                       # Number of instructions simulated
sim_ops                                       7422011                       # Number of ops (including micro ops) simulated
sim_seconds                                  0.018922                       # Number of seconds simulated
sim_ticks                                 18922170000                       # Number of ticks simulated
system.acctest.coherency_bus.snoop_filter.hit_multi_requests            0                       # Number of requests hitting in the snoop filter with multiple (>1) holders of the requested data.
system.acctest.coherency_bus.snoop_filter.hit_multi_snoops            0                       # Number of snoops hitting in the snoop filter with multiple (>1) holders of the requested data.
system.acctest.coherency_bus.snoop_filter.hit_single_requests            0                       # Number of requests hitting in the snoop filter with a single holder of the requested data.
system.acctest.coherency_bus.snoop_filter.hit_single_snoops            0                       # Number of snoops hitting in the snoop filter with a single holder of the requested data.
system.acctest.coherency_bus.snoop_filter.tot_requests            0                       # Total number of requests made to the snoop filter.
system.acctest.coherency_bus.snoop_filter.tot_snoops            0                       # Total number of snoops made to the snoop filter.
system.cf0.dma_read_bytes                           0                       # Number of bytes transfered via DMA reads (not PRD).
system.cf0.dma_read_full_pages                      0                       # Number of full page size DMA reads (not PRD).
system.cf0.dma_read_txs                             0                       # Number of DMA read transactions (not PRD).
system.cf0.dma_write_bytes                          0                       # Number of bytes transfered via DMA writes.
system.cf0.dma_write_full_pages                     0                       # Number of full page size DMA writes.
system.cf0.dma_write_txs                            0                       # Number of DMA write transactions.
system.cpu.branchPred.BTBCorrect                    0                       # Number of correct BTB predictions (this stat may not work properly.
system.cpu.branchPred.BTBHitPct             68.801977                       # BTB Hit Percentage
system.cpu.branchPred.BTBHits                   26722                       # Number of BTB hits
system.cpu.branchPred.BTBLookups                38839                       # Number of BTB lookups
system.cpu.branchPred.RASInCorrect                564                       # Number of incorrect RAS predictions.
system.cpu.branchPred.condIncorrect              3511                       # Number of conditional branches incorrect
system.cpu.branchPred.condPredicted             32862                       # Number of conditional branches predicted
system.cpu.branchPred.indirectHits               5335                       # Number of indirect target hits.
system.cpu.branchPred.indirectLookups            6761                       # Number of indirect predictor lookups.
system.cpu.branchPred.indirectMisses             1426                       # Number of indirect misses.
system.cpu.branchPred.lookups                   61091                       # Number of BP lookups
system.cpu.branchPred.usedRAS                   10591                       # Number of times the RAS was used to get a target.
system.cpu.branchPredindirectMispredicted          924                       # Number of mispredicted indirect branches.
system.cpu.committedInsts                      322560                       # Number of instructions committed
system.cpu.committedOps                        364348                       # Number of ops (including micro ops) committed
system.cpu.cpi                               4.496035                       # CPI: cycles per instruction
system.cpu.discardedOps                         10168                       # Number of ops (including micro ops) which were discarded before commit
system.cpu.dtb.accesses                             0                       # DTB accesses
system.cpu.dtb.align_faults                         0                       # Number of TLB faults due to alignment restrictions
system.cpu.dtb.domain_faults                        0                       # Number of TLB faults due to domain restrictions
system.cpu.dtb.flush_entries                        0                       # Number of entries that have been flushed from TLB
system.cpu.dtb.flush_tlb                            0                       # Number of times complete TLB was flushed
system.cpu.dtb.flush_tlb_asid                       0                       # Number of times TLB was flushed by ASID
system.cpu.dtb.flush_tlb_mva                        0                       # Number of times TLB was flushed by MVA
system.cpu.dtb.flush_tlb_mva_asid                   0                       # Number of times TLB was flushed by MVA & ASID
system.cpu.dtb.hits                                 0                       # DTB hits
system.cpu.dtb.inst_accesses                        0                       # ITB inst accesses
system.cpu.dtb.inst_hits                            0                       # ITB inst hits
system.cpu.dtb.inst_misses                          0                       # ITB inst misses
system.cpu.dtb.misses                               0                       # DTB misses
system.cpu.dtb.perms_faults                         0                       # Number of TLB faults due to permissions restrictions
system.cpu.dtb.prefetch_faults                      0                       # Number of TLB faults due to prefetch
system.cpu.dtb.read_accesses                        0                       # DTB read accesses
system.cpu.dtb.read_hits                            0                       # DTB read hits
system.cpu.dtb.read_misses                          0                       # DTB read misses
system.cpu.dtb.stage2_mmu.stage2_tlb.accesses            0                       # DTB accesses
system.cpu.dtb.stage2_mmu.stage2_tlb.align_faults            0                       # Number of TLB faults due to alignment restrictions
system.cpu.dtb.stage2_mmu.stage2_tlb.domain_faults            0                       # Number of TLB faults due to domain restrictions
system.cpu.dtb.stage2_mmu.stage2_tlb.flush_entries            0                       # Number of entries that have been flushed from TLB
system.cpu.dtb.stage2_mmu.stage2_tlb.flush_tlb            0                       # Number of times complete TLB was flushed
system.cpu.dtb.stage2_mmu.stage2_tlb.flush_tlb_asid            0                       # Number of times TLB was flushed by ASID
system.cpu.dtb.stage2_mmu.stage2_tlb.flush_tlb_mva            0                       # Number of times TLB was flushed by MVA
system.cpu.dtb.stage2_mmu.stage2_tlb.flush_tlb_mva_asid            0                       # Number of times TLB was flushed by MVA & ASID
system.cpu.dtb.stage2_mmu.stage2_tlb.hits            0                       # DTB hits
system.cpu.dtb.stage2_mmu.stage2_tlb.inst_accesses            0                       # ITB inst accesses
system.cpu.dtb.stage2_mmu.stage2_tlb.inst_hits            0                       # ITB inst hits
system.cpu.dtb.stage2_mmu.stage2_tlb.inst_misses            0                       # ITB inst misses
system.cpu.dtb.stage2_mmu.stage2_tlb.misses            0                       # DTB misses
system.cpu.dtb.stage2_mmu.stage2_tlb.perms_faults            0                       # Number of TLB faults due to permissions restrictions
system.cpu.dtb.stage2_mmu.stage2_tlb.prefetch_faults            0                       # Number of TLB faults due to prefetch
system.cpu.dtb.stage2_mmu.stage2_tlb.read_accesses            0                       # DTB read accesses
system.cpu.dtb.stage2_mmu.stage2_tlb.read_hits            0                       # DTB read hits
system.cpu.dtb.stage2_mmu.stage2_tlb.read_misses            0                       # DTB read misses
system.cpu.dtb.stage2_mmu.stage2_tlb.walker.walkRequestOrigin_Requested::Data            0                       # Table walker requests started/completed, data/inst
system.cpu.dtb.stage2_mmu.stage2_tlb.walker.walkRequestOrigin_Requested::Inst            0                       # Table walker requests started/completed, data/inst
system.cpu.dtb.stage2_mmu.stage2_tlb.walker.walkRequestOrigin_Requested::total            0                       # Table walker requests started/completed, data/inst
system.cpu.dtb.stage2_mmu.stage2_tlb.walker.walkRequestOrigin_Completed::Data            0                       # Table walker requests started/completed, data/inst
system.cpu.dtb.stage2_mmu.stage2_tlb.walker.walkRequestOrigin_Completed::Inst            0                       # Table walker requests started/completed, data/inst
system.cpu.dtb.stage2_mmu.stage2_tlb.walker.walkRequestOrigin_Completed::total            0                       # Table walker requests started/completed, data/inst
system.cpu.dtb.stage2_mmu.stage2_tlb.walker.walkRequestOrigin::total            0                       # Table walker requests started/completed, data/inst
system.cpu.dtb.stage2_mmu.stage2_tlb.walker.walks            0                       # Table walker walks requested
system.cpu.dtb.stage2_mmu.stage2_tlb.write_accesses            0                       # DTB write accesses
system.cpu.dtb.stage2_mmu.stage2_tlb.write_hits            0                       # DTB write hits
system.cpu.dtb.stage2_mmu.stage2_tlb.write_misses            0                       # DTB write misses
system.cpu.dtb.walker.walkRequestOrigin_Requested::Data            0                       # Table walker requests started/completed, data/inst
system.cpu.dtb.walker.walkRequestOrigin_Requested::Inst            0                       # Table walker requests started/completed, data/inst
system.cpu.dtb.walker.walkRequestOrigin_Requested::total            0                       # Table walker requests started/completed, data/inst
system.cpu.dtb.walker.walkRequestOrigin_Completed::Data            0                       # Table walker requests started/completed, data/inst
system.cpu.dtb.walker.walkRequestOrigin_Completed::Inst            0                       # Table walker requests started/completed, data/inst
system.cpu.dtb.walker.walkRequestOrigin_Completed::total            0                       # Table walker requests started/completed, data/inst
system.cpu.dtb.walker.walkRequestOrigin::total            0                       # Table walker requests started/completed, data/inst
system.cpu.dtb.walker.walks                         0                       # Table walker walks requested
system.cpu.dtb.write_accesses                       0                       # DTB write accesses
system.cpu.dtb.write_hits                           0                       # DTB write hits
system.cpu.dtb.write_misses                         0                       # DTB write misses
system.cpu.fetch2.amo_instructions                  0                       # Number of memory atomic instructions successfully decoded
system.cpu.fetch2.fp_instructions                   0                       # Number of floating point instructions successfully decoded
system.cpu.fetch2.int_instructions             181444                       # Number of integer instructions successfully decoded
system.cpu.fetch2.load_instructions             88212                       # Number of memory load instructions successfully decoded
system.cpu.fetch2.store_instructions            44134                       # Number of memory store instructions successfully decoded
system.cpu.fetch2.vec_instructions                  0                       # Number of SIMD instructions successfully decoded
system.cpu.idleCycles                          970772                       # Total number of cycles that the object has spent stopped
system.cpu.ipc                               0.222418                       # IPC: instructions per cycle
system.cpu.itb.accesses                             0                       # DTB accesses
system.cpu.itb.align_faults                         0                       # Number of TLB faults due to alignment restrictions
system.cpu.itb.domain_faults                        0                       # Number of TLB faults due to domain restrictions
system.cpu.itb.flush_entries                        0                       # Number of entries that have been flushed from TLB
system.cpu.itb.flush_tlb                            0                       # Number of times complete TLB was flushed
system.cpu.itb.flush_tlb_asid                       0                       # Number of times TLB was flushed by ASID
system.cpu.itb.flush_tlb_mva                        0                       # Number of times TLB was flushed by MVA
system.cpu.itb.flush_tlb_mva_asid                   0                       # Number of times TLB was flushed by MVA & ASID
system.cpu.itb.hits                                 0                       # DTB hits
system.cpu.itb.inst_accesses                        0                       # ITB inst accesses
system.cpu.itb.inst_hits                            0                       # ITB inst hits
system.cpu.itb.inst_misses                          0                       # ITB inst misses
system.cpu.itb.misses                               0                       # DTB misses
system.cpu.itb.perms_faults                         0                       # Number of TLB faults due to permissions restrictions
system.cpu.itb.prefetch_faults                      0                       # Number of TLB faults due to prefetch
system.cpu.itb.read_accesses                        0                       # DTB read accesses
system.cpu.itb.read_hits                            0                       # DTB read hits
system.cpu.itb.read_misses                          0                       # DTB read misses
system.cpu.itb.stage2_mmu.stage2_tlb.accesses            0                       # DTB accesses
system.cpu.itb.stage2_mmu.stage2_tlb.align_faults            0                       # Number of TLB faults due to alignment restrictions
system.cpu.itb.stage2_mmu.stage2_tlb.domain_faults            0                       # Number of TLB faults due to domain restrictions
system.cpu.itb.stage2_mmu.stage2_tlb.flush_entries            0                       # Number of entries that have been flushed from TLB
system.cpu.itb.stage2_mmu.stage2_tlb.flush_tlb            0                       # Number of times complete TLB was flushed
system.cpu.itb.stage2_mmu.stage2_tlb.flush_tlb_asid            0                       # Number of times TLB was flushed by ASID
system.cpu.itb.stage2_mmu.stage2_tlb.flush_tlb_mva            0                       # Number of times TLB was flushed by MVA
system.cpu.itb.stage2_mmu.stage2_tlb.flush_tlb_mva_asid            0                       # Number of times TLB was flushed by MVA & ASID
system.cpu.itb.stage2_mmu.stage2_tlb.hits            0                       # DTB hits
system.cpu.itb.stage2_mmu.stage2_tlb.inst_accesses            0                       # ITB inst accesses
system.cpu.itb.stage2_mmu.stage2_tlb.inst_hits            0                       # ITB inst hits
system.cpu.itb.stage2_mmu.stage2_tlb.inst_misses            0                       # ITB inst misses
system.cpu.itb.stage2_mmu.stage2_tlb.misses            0                       # DTB misses
system.cpu.itb.stage2_mmu.stage2_tlb.perms_faults            0                       # Number of TLB faults due to permissions restrictions
system.cpu.itb.stage2_mmu.stage2_tlb.prefetch_faults            0                       # Number of TLB faults due to prefetch
system.cpu.itb.stage2_mmu.stage2_tlb.read_accesses            0                       # DTB read accesses
system.cpu.itb.stage2_mmu.stage2_tlb.read_hits            0                       # DTB read hits
system.cpu.itb.stage2_mmu.stage2_tlb.read_misses            0                       # DTB read misses
system.cpu.itb.stage2_mmu.stage2_tlb.walker.walkRequestOrigin_Requested::Data            0                       # Table walker requests started/completed, data/inst
system.cpu.itb.stage2_mmu.stage2_tlb.walker.walkRequestOrigin_Requested::Inst            0                       # Table walker requests started/completed, data/inst
system.cpu.itb.stage2_mmu.stage2_tlb.walker.walkRequestOrigin_Requested::total            0                       # Table walker requests started/completed, data/inst
system.cpu.itb.stage2_mmu.stage2_tlb.walker.walkRequestOrigin_Completed::Data            0                       # Table walker requests started/completed, data/inst
system.cpu.itb.stage2_mmu.stage2_tlb.walker.walkRequestOrigin_Completed::Inst            0                       # Table walker requests started/completed, data/inst
system.cpu.itb.stage2_mmu.stage2_tlb.walker.walkRequestOrigin_Completed::total            0                       # Table walker requests started/completed, data/inst
system.cpu.itb.stage2_mmu.stage2_tlb.walker.walkRequestOrigin::total            0                       # Table walker requests started/completed, data/inst
system.cpu.itb.stage2_mmu.stage2_tlb.walker.walks            0                       # Table walker walks requested
system.cpu.itb.stage2_mmu.stage2_tlb.write_accesses            0                       # DTB write accesses
system.cpu.itb.stage2_mmu.stage2_tlb.write_hits            0                       # DTB write hits
system.cpu.itb.stage2_mmu.stage2_tlb.write_misses            0                       # DTB write misses
system.cpu.itb.walker.walkRequestOrigin_Requested::Data            0                       # Table walker requests started/completed, data/inst
system.cpu.itb.walker.walkRequestOrigin_Requested::Inst            0                       # Table walker requests started/completed, data/inst
system.cpu.itb.walker.walkRequestOrigin_Requested::total            0                       # Table walker requests started/completed, data/inst
system.cpu.itb.walker.walkRequestOrigin_Completed::Data            0                       # Table walker requests started/completed, data/inst
system.cpu.itb.walker.walkRequestOrigin_Completed::Inst            0                       # Table walker requests started/completed, data/inst
system.cpu.itb.walker.walkRequestOrigin_Completed::total            0                       # Table walker requests started/completed, data/inst
system.cpu.itb.walker.walkRequestOrigin::total            0                       # Table walker requests started/completed, data/inst
system.cpu.itb.walker.walks                         0                       # Table walker walks requested
system.cpu.itb.write_accesses                       0                       # DTB write accesses
system.cpu.itb.write_hits                           0                       # DTB write hits
system.cpu.itb.write_misses                         0                       # DTB write misses
system.cpu.kern.inst.arm                            0                       # number of arm instructions executed
system.cpu.kern.inst.quiesce                      564                       # number of quiesce instructions executed
system.cpu.numCycles                          1450241                       # number of cpu cycles simulated
system.cpu.numFetchSuspends                       564                       # Number of times Execute suspended instruction fetching
system.cpu.numWorkItemsCompleted                    0                       # number of work items this cpu completed
system.cpu.numWorkItemsStarted                      0                       # number of work items this cpu started
system.cpu.op_class_0::No_OpClass                   0      0.00%      0.00% # Class of committed instruction
system.cpu.op_class_0::IntAlu                  204463     56.12%     56.12% # Class of committed instruction
system.cpu.op_class_0::IntMult                   1277      0.35%     56.47% # Class of committed instruction
system.cpu.op_class_0::IntDiv                       0      0.00%     56.47% # Class of committed instruction
system.cpu.op_class_0::FloatAdd                     0      0.00%     56.47% # Class of committed instruction
system.cpu.op_class_0::FloatCmp                     0      0.00%     56.47% # Class of committed instruction
system.cpu.op_class_0::FloatCvt                     0      0.00%     56.47% # Class of committed instruction
system.cpu.op_class_0::FloatMult                    0      0.00%     56.47% # Class of committed instruction
system.cpu.op_class_0::FloatMultAcc                 0      0.00%     56.47% # Class of committed instruction
system.cpu.op_class_0::FloatDiv                     0      0.00%     56.47% # Class of committed instruction
system.cpu.op_class_0::FloatMisc                    0      0.00%     56.47% # Class of committed instruction
system.cpu.op_class_0::FloatSqrt                    0      0.00%     56.47% # Class of committed instruction
system.cpu.op_class_0::SimdAdd                      0      0.00%     56.47% # Class of committed instruction
system.cpu.op_class_0::SimdAddAcc                   0      0.00%     56.47% # Class of committed instruction
system.cpu.op_class_0::SimdAlu                      0      0.00%     56.47% # Class of committed instruction
system.cpu.op_class_0::SimdCmp                      0      0.00%     56.47% # Class of committed instruction
system.cpu.op_class_0::SimdCvt                      0      0.00%     56.47% # Class of committed instruction
system.cpu.op_class_0::SimdMisc                     0      0.00%     56.47% # Class of committed instruction
system.cpu.op_class_0::SimdMult                     0      0.00%     56.47% # Class of committed instruction
system.cpu.op_class_0::SimdMultAcc                  0      0.00%     56.47% # Class of committed instruction
system.cpu.op_class_0::SimdShift                    0      0.00%     56.47% # Class of committed instruction
system.cpu.op_class_0::SimdShiftAcc                 0      0.00%     56.47% # Class of committed instruction
system.cpu.op_class_0::SimdDiv                      0      0.00%     56.47% # Class of committed instruction
system.cpu.op_class_0::SimdSqrt                     0      0.00%     56.47% # Class of committed instruction
system.cpu.op_class_0::SimdFloatAdd                 0      0.00%     56.47% # Class of committed instruction
system.cpu.op_class_0::SimdFloatAlu                 0      0.00%     56.47% # Class of committed instruction
system.cpu.op_class_0::SimdFloatCmp                 0      0.00%     56.47% # Class of committed instruction
system.cpu.op_class_0::SimdFloatCvt                 0      0.00%     56.47% # Class of committed instruction
system.cpu.op_class_0::SimdFloatDiv                 0      0.00%     56.47% # Class of committed instruction
system.cpu.op_class_0::SimdFloatMisc                0      0.00%     56.47% # Class of committed instruction
system.cpu.op_class_0::SimdFloatMult                0      0.00%     56.47% # Class of committed instruction
system.cpu.op_class_0::SimdFloatMultAcc             0      0.00%     56.47% # Class of committed instruction
system.cpu.op_class_0::SimdFloatSqrt                0      0.00%     56.47% # Class of committed instruction
system.cpu.op_class_0::SimdReduceAdd                0      0.00%     56.47% # Class of committed instruction
system.cpu.op_class_0::SimdReduceAlu                0      0.00%     56.47% # Class of committed instruction
system.cpu.op_class_0::SimdReduceCmp                0      0.00%     56.47% # Class of committed instruction
system.cpu.op_class_0::SimdFloatReduceAdd            0      0.00%     56.47% # Class of committed instruction
system.cpu.op_class_0::SimdFloatReduceCmp            0      0.00%     56.47% # Class of committed instruction
system.cpu.op_class_0::SimdAes                      0      0.00%     56.47% # Class of committed instruction
system.cpu.op_class_0::SimdAesMix                   0      0.00%     56.47% # Class of committed instruction
system.cpu.op_class_0::SimdSha1Hash                 0      0.00%     56.47% # Class of committed instruction
system.cpu.op_class_0::SimdSha1Hash2                0      0.00%     56.47% # Class of committed instruction
system.cpu.op_class_0::SimdSha256Hash               0      0.00%     56.47% # Class of committed instruction
system.cpu.op_class_0::SimdSha256Hash2              0      0.00%     56.47% # Class of committed instruction
system.cpu.op_class_0::SimdShaSigma2                0      0.00%     56.47% # Class of committed instruction
system.cpu.op_class_0::SimdShaSigma3                0      0.00%     56.47% # Class of committed instruction
system.cpu.op_class_0::SimdPredAlu                  0      0.00%     56.47% # Class of committed instruction
system.cpu.op_class_0::MemRead                  93444     25.65%     82.11% # Class of committed instruction
system.cpu.op_class_0::MemWrite                 65164     17.89%    100.00% # Class of committed instruction
system.cpu.op_class_0::FloatMemRead                 0      0.00%    100.00% # Class of committed instruction
system.cpu.op_class_0::FloatMemWrite                0      0.00%    100.00% # Class of committed instruction
system.cpu.op_class_0::IprAccess                    0      0.00%    100.00% # Class of committed instruction
system.cpu.op_class_0::InstPrefetch                 0      0.00%    100.00% # Class of committed instruction
system.cpu.op_class_0::total                   364348                       # Class of committed instruction
system.cpu.quiesceCycles                     28825231                       # Total number of cycles that CPU has spent quiesced or waiting for an interrupt
system.cpu.tickCycles                          479469                       # Number of cycles that the object actually ticked
system.membus.snoop_filter.hit_multi_requests            5                       # Number of requests hitting in the snoop filter with multiple (>1) holders of the requested data.
system.membus.snoop_filter.hit_multi_snoops            0                       # Number of snoops hitting in the snoop filter with multiple (>1) holders of the requested data.
system.membus.snoop_filter.hit_single_requests          577                       # Number of requests hitting in the snoop filter with a single holder of the requested data.
system.membus.snoop_filter.hit_single_snoops            0                       # Number of snoops hitting in the snoop filter with a single holder of the requested data.
system.membus.snoop_filter.tot_requests          1418                       # Total number of requests made to the snoop filter.
system.membus.snoop_filter.tot_snoops               0                       # Total number of snoops made to the snoop filter.
system.bridge.pwrStateResidencyTicks::UNDEFINED  25027299375                       # Cumulative time (in ticks) in various power states
system.voltage_domain.voltage                       1                       # Voltage in Volts
system.iocache.pwrStateResidencyTicks::UNDEFINED  25027299375                       # Cumulative time (in ticks) in various power states
system.iocache.blocked_cycles::no_mshrs             0                       # number of cycles access was blocked
system.iocache.blocked_cycles::no_targets            0                       # number of cycles access was blocked
system.iocache.blocked::no_mshrs                    0                       # number of cycles access was blocked
system.iocache.blocked::no_targets                  0                       # number of cycles access was blocked
system.iocache.avg_blocked_cycles::no_mshrs          nan                       # average number of cycles each access was blocked
system.iocache.avg_blocked_cycles::no_targets          nan                       # average number of cycles each access was blocked
system.iocache.replacements                         0                       # number of replacements
system.iocache.tags.pwrStateResidencyTicks::UNDEFINED  25027299375                       # Cumulative time (in ticks) in various power states
system.iocache.tags.tagsinuse                       0                       # Cycle average of tags in use
system.iocache.tags.total_refs                      0                       # Total number of references to valid blocks.
system.iocache.tags.sampled_refs                    0                       # Sample count of references to valid blocks.
system.iocache.tags.avg_refs                      nan                       # Average number of references to valid blocks.
system.iocache.tags.warmup_cycle                    0                       # Cycle when the warmup percentage was hit.
system.iocache.tags.tag_accesses                    0                       # Number of tag accesses
system.iocache.tags.data_accesses                   0                       # Number of data accesses
system.membus.pwrStateResidencyTicks::UNDEFINED  25027299375                       # Cumulative time (in ticks) in various power states
system.membus.trans_dist::ReadReq              231540                       # Transaction distribution
system.membus.trans_dist::ReadResp             232191                       # Transaction distribution
system.membus.trans_dist::WriteReq             145742                       # Transaction distribution
system.membus.trans_dist::WriteResp            145742                       # Transaction distribution
system.membus.trans_dist::WritebackDirty          299                       # Transaction distribution
system.membus.trans_dist::CleanEvict              256                       # Transaction distribution
system.membus.trans_dist::ReadExReq               206                       # Transaction distribution
system.membus.trans_dist::ReadExResp              206                       # Transaction distribution
system.membus.trans_dist::ReadCleanReq            249                       # Transaction distribution
system.membus.trans_dist::ReadSharedReq           402                       # Transaction distribution
system.membus.pkt_count_system.cpu.icache.mem_side::system.realview.bootmem.port          565                       # Packet count per connected master and slave (bytes)
system.membus.pkt_count_system.cpu.icache.mem_side::total          565                       # Packet count per connected master and slave (bytes)
system.membus.pkt_count_system.cpu.dcache.mem_side::system.realview.bootmem.port           57                       # Packet count per connected master and slave (bytes)
system.membus.pkt_count_system.cpu.dcache.mem_side::system.realview.gic.pio         2344                       # Packet count per connected master and slave (bytes)
system.membus.pkt_count_system.cpu.dcache.mem_side::system.mem_ctrls.port         1647                       # Packet count per connected master and slave (bytes)
system.membus.pkt_count_system.cpu.dcache.mem_side::system.acctest.mem2cls.slave         9224                       # Packet count per connected master and slave (bytes)
system.membus.pkt_count_system.cpu.dcache.mem_side::total        13272                       # Packet count per connected master and slave (bytes)
system.membus.pkt_count_system.acctest.coherency_bus.master[0]::system.mem_ctrls.port       742996                       # Packet count per connected master and slave (bytes)
system.membus.pkt_count_system.acctest.coherency_bus.master[0]::total       742996                       # Packet count per connected master and slave (bytes)
system.membus.pkt_count::total                 756833                       # Packet count per connected master and slave (bytes)
system.membus.pkt_size_system.cpu.icache.mem_side::system.realview.bootmem.port        15936                       # Cumulative packet size per connected master and slave (bytes)
system.membus.pkt_size_system.cpu.icache.mem_side::total        15936                       # Cumulative packet size per connected master and slave (bytes)
system.membus.pkt_size_system.cpu.dcache.mem_side::system.realview.bootmem.port         1664                       # Cumulative packet size per connected master and slave (bytes)
system.membus.pkt_size_system.cpu.dcache.mem_side::system.realview.gic.pio         4688                       # Cumulative packet size per connected master and slave (bytes)
system.membus.pkt_size_system.cpu.dcache.mem_side::system.mem_ctrls.port        56384                       # Cumulative packet size per connected master and slave (bytes)
system.membus.pkt_size_system.cpu.dcache.mem_side::system.acctest.mem2cls.slave        12928                       # Cumulative packet size per connected master and slave (bytes)
system.membus.pkt_size_system.cpu.dcache.mem_side::total        75664                       # Cumulative packet size per connected master and slave (bytes)
system.membus.pkt_size_system.acctest.coherency_bus.master[0]::system.mem_ctrls.port     23775388                       # Cumulative packet size per connected master and slave (bytes)
system.membus.pkt_size_system.acctest.coherency_bus.master[0]::total     23775388                       # Cumulative packet size per connected master and slave (bytes)
system.membus.pkt_size::total                23866988                       # Cumulative packet size per connected master and slave (bytes)
system.membus.snoops                                0                       # Total snoops (count)
system.membus.snoopTraffic                          0                       # Total snoop traffic (bytes)
system.membus.snoop_fanout::samples            378475                       # Request fanout histogram
system.membus.snoop_fanout::mean             0.000071                       # Request fanout histogram
system.membus.snoop_fanout::stdev            0.008446                       # Request fanout histogram
system.membus.snoop_fanout::underflows              0      0.00%      0.00% # Request fanout histogram
system.membus.snoop_fanout::0                  378448     99.99%     99.99% # Request fanout histogram
system.membus.snoop_fanout::1                      27      0.01%    100.00% # Request fanout histogram
system.membus.snoop_fanout::2                       0      0.00%    100.00% # Request fanout histogram
system.membus.snoop_fanout::3                       0      0.00%    100.00% # Request fanout histogram
system.membus.snoop_fanout::4                       0      0.00%    100.00% # Request fanout histogram
system.membus.snoop_fanout::overflows               0      0.00%    100.00% # Request fanout histogram
system.membus.snoop_fanout::min_value               0                       # Request fanout histogram
system.membus.snoop_fanout::max_value               1                       # Request fanout histogram
system.membus.snoop_fanout::total              378475                       # Request fanout histogram
system.membus.reqLayer6.occupancy          1035458290                       # Layer occupancy (ticks)
system.membus.reqLayer6.utilization               5.5                       # Layer utilization (%)
system.membus.reqLayer7.occupancy            11673375                       # Layer occupancy (ticks)
system.membus.reqLayer7.utilization               0.1                       # Layer utilization (%)
system.membus.reqLayer1.occupancy              541312                       # Layer occupancy (ticks)
system.membus.reqLayer1.utilization               0.0                       # Layer utilization (%)
system.membus.reqLayer2.occupancy             2233625                       # Layer occupancy (ticks)
system.membus.reqLayer2.utilization               0.0                       # Layer utilization (%)
system.membus.badaddr_responder.pwrStateResidencyTicks::UNDEFINED  25027299375                       # Cumulative time (in ticks) in various power states
system.membus.respLayer4.occupancy            9837380                       # Layer occupancy (ticks)
system.membus.respLayer4.utilization              0.1                       # Layer utilization (%)
system.membus.respLayer7.occupancy         1442425073                       # Layer occupancy (ticks)
system.membus.respLayer7.utilization              7.6                       # Layer utilization (%)
system.membus.respLayer3.occupancy            1249500                       # Layer occupancy (ticks)
system.membus.respLayer3.utilization              0.0                       # Layer utilization (%)
system.acctest.harris_non_max0_spm.pwrStateResidencyTicks::UNDEFINED  25027299375                       # Cumulative time (in ticks) in various power states
system.acctest.elem_matrix2_spm.pwrStateResidencyTicks::UNDEFINED  25027299375                       # Cumulative time (in ticks) in various power states
system.acctest.elem_matrix3_spm.pwrStateResidencyTicks::UNDEFINED  25027299375                       # Cumulative time (in ticks) in various power states
system.acctest.local_bus.pwrStateResidencyTicks::UNDEFINED  25027299375                       # Cumulative time (in ticks) in various power states
system.acctest.local_bus.trans_dist::ReadReq       341504                       # Transaction distribution
system.acctest.local_bus.trans_dist::ReadResp       341504                       # Transaction distribution
system.acctest.local_bus.trans_dist::WriteReq       526934                       # Transaction distribution
system.acctest.local_bus.trans_dist::WriteResp       526934                       # Transaction distribution
system.acctest.local_bus.pkt_count_system.acctest.mem2cls.master::system.acctest.canny_non_max0.pio           12                       # Packet count per connected master and slave (bytes)
system.acctest.local_bus.pkt_count_system.acctest.mem2cls.master::system.acctest.canny_non_max0_dma.pio           28                       # Packet count per connected master and slave (bytes)
system.acctest.local_bus.pkt_count_system.acctest.mem2cls.master::system.acctest.convolution0.pio          260                       # Packet count per connected master and slave (bytes)
system.acctest.local_bus.pkt_count_system.acctest.mem2cls.master::system.acctest.convolution0_dma.pio          392                       # Packet count per connected master and slave (bytes)
system.acctest.local_bus.pkt_count_system.acctest.mem2cls.master::system.acctest.edge_tracking0.pio           16                       # Packet count per connected master and slave (bytes)
system.acctest.local_bus.pkt_count_system.acctest.mem2cls.master::system.acctest.edge_tracking0_dma.pio           28                       # Packet count per connected master and slave (bytes)
system.acctest.local_bus.pkt_count_system.acctest.mem2cls.master::system.acctest.elem_matrix0.pio         3180                       # Packet count per connected master and slave (bytes)
system.acctest.local_bus.pkt_count_system.acctest.mem2cls.master::system.acctest.elem_matrix0_dma.pio         5194                       # Packet count per connected master and slave (bytes)
system.acctest.local_bus.pkt_count_system.acctest.mem2cls.master::system.acctest.grayscale0.pio           20                       # Packet count per connected master and slave (bytes)
system.acctest.local_bus.pkt_count_system.acctest.mem2cls.master::system.acctest.grayscale0_dma.pio           42                       # Packet count per connected master and slave (bytes)
system.acctest.local_bus.pkt_count_system.acctest.mem2cls.master::system.acctest.isp0.pio           24                       # Packet count per connected master and slave (bytes)
system.acctest.local_bus.pkt_count_system.acctest.mem2cls.master::system.acctest.isp0_dma.pio           28                       # Packet count per connected master and slave (bytes)
system.acctest.local_bus.pkt_count_system.acctest.mem2cls.master::total         9224                       # Packet count per connected master and slave (bytes)
system.acctest.local_bus.pkt_count_system.acctest.canny_non_max0_dma.dma::system.acctest.canny_non_max0_spm.port         8192                       # Packet count per connected master and slave (bytes)
system.acctest.local_bus.pkt_count_system.acctest.canny_non_max0_dma.dma::system.acctest.elem_matrix0_spm.port         4096                       # Packet count per connected master and slave (bytes)
system.acctest.local_bus.pkt_count_system.acctest.canny_non_max0_dma.dma::total        12288                       # Packet count per connected master and slave (bytes)
system.acctest.local_bus.pkt_count_system.acctest.convolution0_dma.dma::system.acctest.convolution0_spm.port        61536                       # Packet count per connected master and slave (bytes)
system.acctest.local_bus.pkt_count_system.acctest.convolution0_dma.dma::system.acctest.elem_matrix0_spm.port        32768                       # Packet count per connected master and slave (bytes)
system.acctest.local_bus.pkt_count_system.acctest.convolution0_dma.dma::system.acctest.grayscale0_spm.port         8192                       # Packet count per connected master and slave (bytes)
system.acctest.local_bus.pkt_count_system.acctest.convolution0_dma.dma::total       102496                       # Packet count per connected master and slave (bytes)
system.acctest.local_bus.pkt_count_system.acctest.edge_tracking0_dma.dma::system.acctest.canny_non_max0_spm.port         4096                       # Packet count per connected master and slave (bytes)
system.acctest.local_bus.pkt_count_system.acctest.edge_tracking0_dma.dma::system.acctest.edge_tracking0_spm.port         5120                       # Packet count per connected master and slave (bytes)
system.acctest.local_bus.pkt_count_system.acctest.edge_tracking0_dma.dma::total         9216                       # Packet count per connected master and slave (bytes)
system.acctest.local_bus.pkt_count_system.acctest.elem_matrix0_dma.dma::system.acctest.convolution0_spm.port        45056                       # Packet count per connected master and slave (bytes)
system.acctest.local_bus.pkt_count_system.acctest.elem_matrix0_dma.dma::system.acctest.elem_matrix0_spm.port      1519616                       # Packet count per connected master and slave (bytes)
system.acctest.local_bus.pkt_count_system.acctest.elem_matrix0_dma.dma::system.acctest.grayscale0_spm.port        20480                       # Packet count per connected master and slave (bytes)
system.acctest.local_bus.pkt_count_system.acctest.elem_matrix0_dma.dma::total      1585152                       # Packet count per connected master and slave (bytes)
system.acctest.local_bus.pkt_count_system.acctest.grayscale0_dma.dma::system.acctest.grayscale0_spm.port        10240                       # Packet count per connected master and slave (bytes)
system.acctest.local_bus.pkt_count_system.acctest.grayscale0_dma.dma::system.acctest.isp0_spm.port         6144                       # Packet count per connected master and slave (bytes)
system.acctest.local_bus.pkt_count_system.acctest.grayscale0_dma.dma::total        16384                       # Packet count per connected master and slave (bytes)
system.acctest.local_bus.pkt_count_system.acctest.isp0_dma.dma::system.acctest.isp0_spm.port         2116                       # Packet count per connected master and slave (bytes)
system.acctest.local_bus.pkt_count_system.acctest.isp0_dma.dma::total         2116                       # Packet count per connected master and slave (bytes)
system.acctest.local_bus.pkt_count::total      1736876                       # Packet count per connected master and slave (bytes)
system.acctest.local_bus.pkt_size_system.acctest.mem2cls.master::system.acctest.canny_non_max0.pio           15                       # Cumulative packet size per connected master and slave (bytes)
system.acctest.local_bus.pkt_size_system.acctest.mem2cls.master::system.acctest.canny_non_max0_dma.pio           44                       # Cumulative packet size per connected master and slave (bytes)
system.acctest.local_bus.pkt_size_system.acctest.mem2cls.master::system.acctest.convolution0.pio          364                       # Cumulative packet size per connected master and slave (bytes)
system.acctest.local_bus.pkt_size_system.acctest.mem2cls.master::system.acctest.convolution0_dma.pio          616                       # Cumulative packet size per connected master and slave (bytes)
system.acctest.local_bus.pkt_size_system.acctest.mem2cls.master::system.acctest.edge_tracking0.pio           23                       # Cumulative packet size per connected master and slave (bytes)
system.acctest.local_bus.pkt_size_system.acctest.mem2cls.master::system.acctest.edge_tracking0_dma.pio           44                       # Cumulative packet size per connected master and slave (bytes)
system.acctest.local_bus.pkt_size_system.acctest.mem2cls.master::system.acctest.elem_matrix0.pio         3498                       # Cumulative packet size per connected master and slave (bytes)
system.acctest.local_bus.pkt_size_system.acctest.mem2cls.master::system.acctest.elem_matrix0_dma.pio         8162                       # Cumulative packet size per connected master and slave (bytes)
system.acctest.local_bus.pkt_size_system.acctest.mem2cls.master::system.acctest.grayscale0.pio           22                       # Cumulative packet size per connected master and slave (bytes)
system.acctest.local_bus.pkt_size_system.acctest.mem2cls.master::system.acctest.grayscale0_dma.pio           66                       # Cumulative packet size per connected master and slave (bytes)
system.acctest.local_bus.pkt_size_system.acctest.mem2cls.master::system.acctest.isp0.pio           30                       # Cumulative packet size per connected master and slave (bytes)
system.acctest.local_bus.pkt_size_system.acctest.mem2cls.master::system.acctest.isp0_dma.pio           44                       # Cumulative packet size per connected master and slave (bytes)
system.acctest.local_bus.pkt_size_system.acctest.mem2cls.master::total        12928                       # Cumulative packet size per connected master and slave (bytes)
system.acctest.local_bus.pkt_size_system.acctest.canny_non_max0_dma.dma::system.acctest.canny_non_max0_spm.port       131072                       # Cumulative packet size per connected master and slave (bytes)
system.acctest.local_bus.pkt_size_system.acctest.canny_non_max0_dma.dma::system.acctest.elem_matrix0_spm.port        65536                       # Cumulative packet size per connected master and slave (bytes)
system.acctest.local_bus.pkt_size_system.acctest.canny_non_max0_dma.dma::total       196608                       # Cumulative packet size per connected master and slave (bytes)
system.acctest.local_bus.pkt_size_system.acctest.convolution0_dma.dma::system.acctest.convolution0_spm.port       984212                       # Cumulative packet size per connected master and slave (bytes)
system.acctest.local_bus.pkt_size_system.acctest.convolution0_dma.dma::system.acctest.elem_matrix0_spm.port       524288                       # Cumulative packet size per connected master and slave (bytes)
system.acctest.local_bus.pkt_size_system.acctest.convolution0_dma.dma::system.acctest.grayscale0_spm.port       131072                       # Cumulative packet size per connected master and slave (bytes)
system.acctest.local_bus.pkt_size_system.acctest.convolution0_dma.dma::total      1639572                       # Cumulative packet size per connected master and slave (bytes)
system.acctest.local_bus.pkt_size_system.acctest.edge_tracking0_dma.dma::system.acctest.canny_non_max0_spm.port        65536                       # Cumulative packet size per connected master and slave (bytes)
system.acctest.local_bus.pkt_size_system.acctest.edge_tracking0_dma.dma::system.acctest.edge_tracking0_spm.port        81920                       # Cumulative packet size per connected master and slave (bytes)
system.acctest.local_bus.pkt_size_system.acctest.edge_tracking0_dma.dma::total       147456                       # Cumulative packet size per connected master and slave (bytes)
system.acctest.local_bus.pkt_size_system.acctest.elem_matrix0_dma.dma::system.acctest.convolution0_spm.port       720896                       # Cumulative packet size per connected master and slave (bytes)
system.acctest.local_bus.pkt_size_system.acctest.elem_matrix0_dma.dma::system.acctest.elem_matrix0_spm.port     24313856                       # Cumulative packet size per connected master and slave (bytes)
system.acctest.local_bus.pkt_size_system.acctest.elem_matrix0_dma.dma::system.acctest.grayscale0_spm.port       327680                       # Cumulative packet size per connected master and slave (bytes)
system.acctest.local_bus.pkt_size_system.acctest.elem_matrix0_dma.dma::total     25362432                       # Cumulative packet size per connected master and slave (bytes)
system.acctest.local_bus.pkt_size_system.acctest.grayscale0_dma.dma::system.acctest.grayscale0_spm.port       163840                       # Cumulative packet size per connected master and slave (bytes)
system.acctest.local_bus.pkt_size_system.acctest.grayscale0_dma.dma::system.acctest.isp0_spm.port        98304                       # Cumulative packet size per connected master and slave (bytes)
system.acctest.local_bus.pkt_size_system.acctest.grayscale0_dma.dma::total       262144                       # Cumulative packet size per connected master and slave (bytes)
system.acctest.local_bus.pkt_size_system.acctest.isp0_dma.dma::system.acctest.isp0_spm.port        33800                       # Cumulative packet size per connected master and slave (bytes)
system.acctest.local_bus.pkt_size_system.acctest.isp0_dma.dma::total        33800                       # Cumulative packet size per connected master and slave (bytes)
system.acctest.local_bus.pkt_size::total     27654940                       # Cumulative packet size per connected master and slave (bytes)
system.acctest.local_bus.occupancy         2844080875                       # Network occupancy (ticks)
system.acctest.local_bus.utilization             15.0                       # Network utilization (%)
system.acctest.local_bus.numRequests          1928570                       # Number of requests
system.acctest.local_bus.averageQueuingDelay          804                       # Average queuing delay (ticks)
system.acctest.local_bus.tailQueuingDelay        11000                       # Tail queuing delay (ticks)
system.acctest.local_bus.averageQueueLength         0.08                       # Average queue length
system.acctest.local_bus.maxQueueLength             6                       # Max queue length
system.acctest.local_bus.reqLayer0.occupancy   2320584021                       # Layer occupancy (ticks)
system.acctest.local_bus.reqLayer0.utilization         12.3                       # Layer utilization (%)
system.acctest.local_bus.respLayer0.occupancy   1552982000                       # Layer occupancy (ticks)
system.acctest.local_bus.respLayer0.utilization          8.2                       # Layer utilization (%)
system.acctest.isp0.pwrStateResidencyTicks::UNDEFINED  25027299375                       # Cumulative time (in ticks) in various power states
system.acctest.edge_tracking0.pwrStateResidencyTicks::UNDEFINED  25027299375                       # Cumulative time (in ticks) in various power states
system.acctest.grayscale0_spm.pwrStateResidencyTicks::UNDEFINED  25027299375                       # Cumulative time (in ticks) in various power states
system.acctest.grayscale0_spm.bytes_read::.acctest.convolution0_dma       131072                       # Number of bytes read from this memory
system.acctest.grayscale0_spm.bytes_read::.acctest.elem_matrix0_dma       327680                       # Number of bytes read from this memory
system.acctest.grayscale0_spm.bytes_read::.acctest.grayscale0.system.acctest.grayscale0        98304                       # Number of bytes read from this memory
system.acctest.grayscale0_spm.bytes_read::.acctest.grayscale0_dma        65536                       # Number of bytes read from this memory
system.acctest.grayscale0_spm.bytes_read::total       622592                       # Number of bytes read from this memory
system.acctest.grayscale0_spm.bytes_written::.acctest.grayscale0.system.acctest.grayscale0       131072                       # Number of bytes written to this memory
system.acctest.grayscale0_spm.bytes_written::.acctest.grayscale0_dma        98304                       # Number of bytes written to this memory
system.acctest.grayscale0_spm.bytes_written::total       229376                       # Number of bytes written to this memory
system.acctest.grayscale0_spm.num_reads::.acctest.convolution0_dma         4096                       # Number of read requests responded to by this memory
system.acctest.grayscale0_spm.num_reads::.acctest.elem_matrix0_dma        10240                       # Number of read requests responded to by this memory
system.acctest.grayscale0_spm.num_reads::.acctest.grayscale0.system.acctest.grayscale0        98304                       # Number of read requests responded to by this memory
system.acctest.grayscale0_spm.num_reads::.acctest.grayscale0_dma         2048                       # Number of read requests responded to by this memory
system.acctest.grayscale0_spm.num_reads::total       114688                       # Number of read requests responded to by this memory
system.acctest.grayscale0_spm.num_writes::.acctest.grayscale0.system.acctest.grayscale0        32768                       # Number of write requests responded to by this memory
system.acctest.grayscale0_spm.num_writes::.acctest.grayscale0_dma         3072                       # Number of write requests responded to by this memory
system.acctest.grayscale0_spm.num_writes::total        35840                       # Number of write requests responded to by this memory
system.acctest.grayscale0_spm.bw_read::.acctest.convolution0_dma      6926901                       # Total read bandwidth from this memory (bytes/s)
system.acctest.grayscale0_spm.bw_read::.acctest.elem_matrix0_dma     17317253                       # Total read bandwidth from this memory (bytes/s)
system.acctest.grayscale0_spm.bw_read::.acctest.grayscale0.system.acctest.grayscale0      5195176                       # Total read bandwidth from this memory (bytes/s)
system.acctest.grayscale0_spm.bw_read::.acctest.grayscale0_dma      3463451                       # Total read bandwidth from this memory (bytes/s)
system.acctest.grayscale0_spm.bw_read::total     32902780                       # Total read bandwidth from this memory (bytes/s)
system.acctest.grayscale0_spm.bw_write::.acctest.grayscale0.system.acctest.grayscale0      6926901                       # Write bandwidth from this memory (bytes/s)
system.acctest.grayscale0_spm.bw_write::.acctest.grayscale0_dma      5195176                       # Write bandwidth from this memory (bytes/s)
system.acctest.grayscale0_spm.bw_write::total     12122077                       # Write bandwidth from this memory (bytes/s)
system.acctest.grayscale0_spm.bw_total::.acctest.convolution0_dma      6926901                       # Total bandwidth to/from this memory (bytes/s)
system.acctest.grayscale0_spm.bw_total::.acctest.elem_matrix0_dma     17317253                       # Total bandwidth to/from this memory (bytes/s)
system.acctest.grayscale0_spm.bw_total::.acctest.grayscale0.system.acctest.grayscale0     12122077                       # Total bandwidth to/from this memory (bytes/s)
system.acctest.grayscale0_spm.bw_total::.acctest.grayscale0_dma      8658626                       # Total bandwidth to/from this memory (bytes/s)
system.acctest.grayscale0_spm.bw_total::total     45024857                       # Total bandwidth to/from this memory (bytes/s)
system.acctest.elem_matrix1_dma.pwrStateResidencyTicks::UNDEFINED  25027299375                       # Cumulative time (in ticks) in various power states
system.acctest.mem2cls.pwrStateResidencyTicks::UNDEFINED  25027299375                       # Cumulative time (in ticks) in various power states
system.acctest.isp0_dma.pwrStateResidencyTicks::UNDEFINED  25027299375                       # Cumulative time (in ticks) in various power states
system.acctest.grayscale0_dma.pwrStateResidencyTicks::UNDEFINED  25027299375                       # Cumulative time (in ticks) in various power states
system.acctest.convolution0.pwrStateResidencyTicks::UNDEFINED  25027299375                       # Cumulative time (in ticks) in various power states
system.acctest.convolution1.pwrStateResidencyTicks::UNDEFINED  25027299375                       # Cumulative time (in ticks) in various power states
system.acctest.isp0_spm.pwrStateResidencyTicks::UNDEFINED  25027299375                       # Cumulative time (in ticks) in various power states
system.acctest.isp0_spm.bytes_read::.acctest.grayscale0_dma        98304                       # Number of bytes read from this memory
system.acctest.isp0_spm.bytes_read::.acctest.isp0.system.acctest.isp0       229376                       # Number of bytes read from this memory
system.acctest.isp0_spm.bytes_read::total       327680                       # Number of bytes read from this memory
system.acctest.isp0_spm.bytes_written::.acctest.isp0.system.acctest.isp0        98304                       # Number of bytes written to this memory
system.acctest.isp0_spm.bytes_written::.acctest.isp0_dma        33800                       # Number of bytes written to this memory
system.acctest.isp0_spm.bytes_written::total       132104                       # Number of bytes written to this memory
system.acctest.isp0_spm.num_reads::.acctest.grayscale0_dma         3072                       # Number of read requests responded to by this memory
system.acctest.isp0_spm.num_reads::.acctest.isp0.system.acctest.isp0       229376                       # Number of read requests responded to by this memory
system.acctest.isp0_spm.num_reads::total       232448                       # Number of read requests responded to by this memory
system.acctest.isp0_spm.num_writes::.acctest.isp0.system.acctest.isp0        98304                       # Number of write requests responded to by this memory
system.acctest.isp0_spm.num_writes::.acctest.isp0_dma         1058                       # Number of write requests responded to by this memory
system.acctest.isp0_spm.num_writes::total        99362                       # Number of write requests responded to by this memory
system.acctest.isp0_spm.bw_read::.acctest.grayscale0_dma      5195176                       # Total read bandwidth from this memory (bytes/s)
system.acctest.isp0_spm.bw_read::.acctest.isp0.system.acctest.isp0     12122077                       # Total read bandwidth from this memory (bytes/s)
system.acctest.isp0_spm.bw_read::total       17317253                       # Total read bandwidth from this memory (bytes/s)
system.acctest.isp0_spm.bw_write::.acctest.isp0.system.acctest.isp0      5195176                       # Write bandwidth from this memory (bytes/s)
system.acctest.isp0_spm.bw_write::.acctest.isp0_dma      1786264                       # Write bandwidth from this memory (bytes/s)
system.acctest.isp0_spm.bw_write::total       6981440                       # Write bandwidth from this memory (bytes/s)
system.acctest.isp0_spm.bw_total::.acctest.grayscale0_dma      5195176                       # Total bandwidth to/from this memory (bytes/s)
system.acctest.isp0_spm.bw_total::.acctest.isp0.system.acctest.isp0     17317253                       # Total bandwidth to/from this memory (bytes/s)
system.acctest.isp0_spm.bw_total::.acctest.isp0_dma      1786264                       # Total bandwidth to/from this memory (bytes/s)
system.acctest.isp0_spm.bw_total::total      24298693                       # Total bandwidth to/from this memory (bytes/s)
system.acctest.coherency_bus.pwrStateResidencyTicks::UNDEFINED  25027299375                       # Cumulative time (in ticks) in various power states
system.acctest.coherency_bus.trans_dist::ReadReq       230954                       # Transaction distribution
system.acctest.coherency_bus.trans_dist::ReadResp       230954                       # Transaction distribution
system.acctest.coherency_bus.trans_dist::WriteReq       140544                       # Transaction distribution
system.acctest.coherency_bus.trans_dist::WriteResp       140544                       # Transaction distribution
system.acctest.coherency_bus.pkt_count_system.acctest.canny_non_max0_dma.dma::system.membus.slave[7]         2048                       # Packet count per connected master and slave (bytes)
system.acctest.coherency_bus.pkt_count_system.acctest.convolution0_dma.dma::system.membus.slave[7]        10288                       # Packet count per connected master and slave (bytes)
system.acctest.coherency_bus.pkt_count_system.acctest.edge_tracking0_dma.dma::system.membus.slave[7]          512                       # Packet count per connected master and slave (bytes)
system.acctest.coherency_bus.pkt_count_system.acctest.elem_matrix0_dma.dma::system.membus.slave[7]       727040                       # Packet count per connected master and slave (bytes)
system.acctest.coherency_bus.pkt_count_system.acctest.grayscale0_dma.dma::system.membus.slave[7]         2048                       # Packet count per connected master and slave (bytes)
system.acctest.coherency_bus.pkt_count_system.acctest.isp0_dma.dma::system.membus.slave[7]         1060                       # Packet count per connected master and slave (bytes)
system.acctest.coherency_bus.pkt_count::total       742996                       # Packet count per connected master and slave (bytes)
system.acctest.coherency_bus.pkt_size_system.acctest.canny_non_max0_dma.dma::system.membus.slave[7]        65536                       # Cumulative packet size per connected master and slave (bytes)
system.acctest.coherency_bus.pkt_size_system.acctest.convolution0_dma.dma::system.membus.slave[7]       328852                       # Cumulative packet size per connected master and slave (bytes)
system.acctest.coherency_bus.pkt_size_system.acctest.edge_tracking0_dma.dma::system.membus.slave[7]        16384                       # Cumulative packet size per connected master and slave (bytes)
system.acctest.coherency_bus.pkt_size_system.acctest.elem_matrix0_dma.dma::system.membus.slave[7]     23265280                       # Cumulative packet size per connected master and slave (bytes)
system.acctest.coherency_bus.pkt_size_system.acctest.grayscale0_dma.dma::system.membus.slave[7]        65536                       # Cumulative packet size per connected master and slave (bytes)
system.acctest.coherency_bus.pkt_size_system.acctest.isp0_dma.dma::system.membus.slave[7]        33800                       # Cumulative packet size per connected master and slave (bytes)
system.acctest.coherency_bus.pkt_size::total     23775388                       # Cumulative packet size per connected master and slave (bytes)
system.acctest.coherency_bus.snoops                 0                       # Total snoops (count)
system.acctest.coherency_bus.snoopTraffic            0                       # Total snoop traffic (bytes)
system.acctest.coherency_bus.snoop_fanout::samples       460402                       # Request fanout histogram
system.acctest.coherency_bus.snoop_fanout::mean            0                       # Request fanout histogram
system.acctest.coherency_bus.snoop_fanout::stdev            0                       # Request fanout histogram
system.acctest.coherency_bus.snoop_fanout::underflows            0      0.00%      0.00% # Request fanout histogram
system.acctest.coherency_bus.snoop_fanout::0       460402    100.00%    100.00% # Request fanout histogram
system.acctest.coherency_bus.snoop_fanout::overflows            0      0.00%    100.00% # Request fanout histogram
system.acctest.coherency_bus.snoop_fanout::min_value            0                       # Request fanout histogram
system.acctest.coherency_bus.snoop_fanout::max_value            0                       # Request fanout histogram
system.acctest.coherency_bus.snoop_fanout::total       460402                       # Request fanout histogram
system.acctest.coherency_bus.reqLayer0.occupancy   1121317040                       # Layer occupancy (ticks)
system.acctest.coherency_bus.reqLayer0.utilization          5.9                       # Layer utilization (%)
system.acctest.coherency_bus.respLayer0.occupancy   1295295000                       # Layer occupancy (ticks)
system.acctest.coherency_bus.respLayer0.utilization          6.8                       # Layer utilization (%)
system.acctest.convolution0_spm.pwrStateResidencyTicks::UNDEFINED  25027299375                       # Cumulative time (in ticks) in various power states
system.acctest.convolution0_spm.bytes_read::.acctest.convolution0.system.acctest.convolution0     37706912                       # Number of bytes read from this memory
system.acctest.convolution0_spm.bytes_read::.acctest.convolution0_dma       262144                       # Number of bytes read from this memory
system.acctest.convolution0_spm.bytes_read::.acctest.elem_matrix0_dma       720896                       # Number of bytes read from this memory
system.acctest.convolution0_spm.bytes_read::total     38689952                       # Number of bytes read from this memory
system.acctest.convolution0_spm.bytes_written::.acctest.convolution0.system.acctest.convolution0       851968                       # Number of bytes written to this memory
system.acctest.convolution0_spm.bytes_written::.acctest.convolution0_dma       722068                       # Number of bytes written to this memory
system.acctest.convolution0_spm.bytes_written::total      1574036                       # Number of bytes written to this memory
system.acctest.convolution0_spm.num_reads::.acctest.convolution0.system.acctest.convolution0      9426728                       # Number of read requests responded to by this memory
system.acctest.convolution0_spm.num_reads::.acctest.convolution0_dma         8192                       # Number of read requests responded to by this memory
system.acctest.convolution0_spm.num_reads::.acctest.elem_matrix0_dma        22528                       # Number of read requests responded to by this memory
system.acctest.convolution0_spm.num_reads::total      9457448                       # Number of read requests responded to by this memory
system.acctest.convolution0_spm.num_writes::.acctest.convolution0.system.acctest.convolution0       212992                       # Number of write requests responded to by this memory
system.acctest.convolution0_spm.num_writes::.acctest.convolution0_dma        22576                       # Number of write requests responded to by this memory
system.acctest.convolution0_spm.num_writes::total       235568                       # Number of write requests responded to by this memory
system.acctest.convolution0_spm.bw_read::.acctest.convolution0.system.acctest.convolution0   1992737197                       # Total read bandwidth from this memory (bytes/s)
system.acctest.convolution0_spm.bw_read::.acctest.convolution0_dma     13853802                       # Total read bandwidth from this memory (bytes/s)
system.acctest.convolution0_spm.bw_read::.acctest.elem_matrix0_dma     38097956                       # Total read bandwidth from this memory (bytes/s)
system.acctest.convolution0_spm.bw_read::total   2044688955                       # Total read bandwidth from this memory (bytes/s)
system.acctest.convolution0_spm.bw_write::.acctest.convolution0.system.acctest.convolution0     45024857                       # Write bandwidth from this memory (bytes/s)
system.acctest.convolution0_spm.bw_write::.acctest.convolution0_dma     38159894                       # Write bandwidth from this memory (bytes/s)
system.acctest.convolution0_spm.bw_write::total     83184751                       # Write bandwidth from this memory (bytes/s)
system.acctest.convolution0_spm.bw_total::.acctest.convolution0.system.acctest.convolution0   2037762054                       # Total bandwidth to/from this memory (bytes/s)
system.acctest.convolution0_spm.bw_total::.acctest.convolution0_dma     52013696                       # Total bandwidth to/from this memory (bytes/s)
system.acctest.convolution0_spm.bw_total::.acctest.elem_matrix0_dma     38097956                       # Total bandwidth to/from this memory (bytes/s)
system.acctest.convolution0_spm.bw_total::total   2127873706                       # Total bandwidth to/from this memory (bytes/s)
system.acctest.elem_matrix0_dma.pwrStateResidencyTicks::UNDEFINED  25027299375                       # Cumulative time (in ticks) in various power states
system.acctest.grayscale0.pwrStateResidencyTicks::UNDEFINED  25027299375                       # Cumulative time (in ticks) in various power states
system.acctest.canny_non_max0.pwrStateResidencyTicks::UNDEFINED  25027299375                       # Cumulative time (in ticks) in various power states
system.acctest.elem_matrix0_spm.pwrStateResidencyTicks::UNDEFINED  25027299375                       # Cumulative time (in ticks) in various power states
system.acctest.elem_matrix0_spm.bytes_read::.acctest.canny_non_max0_dma        65536                       # Number of bytes read from this memory
system.acctest.elem_matrix0_spm.bytes_read::.acctest.convolution0_dma       524288                       # Number of bytes read from this memory
system.acctest.elem_matrix0_spm.bytes_read::.acctest.elem_matrix0.system.acctest.elem_matrix0     18022400                       # Number of bytes read from this memory
system.acctest.elem_matrix0_spm.bytes_read::.acctest.elem_matrix0_dma      8650752                       # Number of bytes read from this memory
system.acctest.elem_matrix0_spm.bytes_read::total     27262976                       # Number of bytes read from this memory
system.acctest.elem_matrix0_spm.bytes_written::.acctest.elem_matrix0.system.acctest.elem_matrix0     10420224                       # Number of bytes written to this memory
system.acctest.elem_matrix0_spm.bytes_written::.acctest.elem_matrix0_dma     15663104                       # Number of bytes written to this memory
system.acctest.elem_matrix0_spm.bytes_written::total     26083328                       # Number of bytes written to this memory
system.acctest.elem_matrix0_spm.num_reads::.acctest.canny_non_max0_dma         2048                       # Number of read requests responded to by this memory
system.acctest.elem_matrix0_spm.num_reads::.acctest.convolution0_dma        16384                       # Number of read requests responded to by this memory
system.acctest.elem_matrix0_spm.num_reads::.acctest.elem_matrix0.system.acctest.elem_matrix0      4505600                       # Number of read requests responded to by this memory
system.acctest.elem_matrix0_spm.num_reads::.acctest.elem_matrix0_dma       270336                       # Number of read requests responded to by this memory
system.acctest.elem_matrix0_spm.num_reads::total      4794368                       # Number of read requests responded to by this memory
system.acctest.elem_matrix0_spm.num_writes::.acctest.elem_matrix0.system.acctest.elem_matrix0      2605056                       # Number of write requests responded to by this memory
system.acctest.elem_matrix0_spm.num_writes::.acctest.elem_matrix0_dma       489472                       # Number of write requests responded to by this memory
system.acctest.elem_matrix0_spm.num_writes::total      3094528                       # Number of write requests responded to by this memory
system.acctest.elem_matrix0_spm.bw_read::.acctest.canny_non_max0_dma      3463451                       # Total read bandwidth from this memory (bytes/s)
system.acctest.elem_matrix0_spm.bw_read::.acctest.convolution0_dma     27707604                       # Total read bandwidth from this memory (bytes/s)
system.acctest.elem_matrix0_spm.bw_read::.acctest.elem_matrix0.system.acctest.elem_matrix0    952448900                       # Total read bandwidth from this memory (bytes/s)
system.acctest.elem_matrix0_spm.bw_read::.acctest.elem_matrix0_dma    457175472                       # Total read bandwidth from this memory (bytes/s)
system.acctest.elem_matrix0_spm.bw_read::total   1440795427                       # Total read bandwidth from this memory (bytes/s)
system.acctest.elem_matrix0_spm.bw_write::.acctest.elem_matrix0.system.acctest.elem_matrix0    550688637                       # Write bandwidth from this memory (bytes/s)
system.acctest.elem_matrix0_spm.bw_write::.acctest.elem_matrix0_dma    827764680                       # Write bandwidth from this memory (bytes/s)
system.acctest.elem_matrix0_spm.bw_write::total   1378453317                       # Write bandwidth from this memory (bytes/s)
system.acctest.elem_matrix0_spm.bw_total::.acctest.canny_non_max0_dma      3463451                       # Total bandwidth to/from this memory (bytes/s)
system.acctest.elem_matrix0_spm.bw_total::.acctest.convolution0_dma     27707604                       # Total bandwidth to/from this memory (bytes/s)
system.acctest.elem_matrix0_spm.bw_total::.acctest.elem_matrix0.system.acctest.elem_matrix0   1503137537                       # Total bandwidth to/from this memory (bytes/s)
system.acctest.elem_matrix0_spm.bw_total::.acctest.elem_matrix0_dma   1284940152                       # Total bandwidth to/from this memory (bytes/s)
system.acctest.elem_matrix0_spm.bw_total::total   2819248744                       # Total bandwidth to/from this memory (bytes/s)
system.acctest.convolution0_dma.pwrStateResidencyTicks::UNDEFINED  25027299375                       # Cumulative time (in ticks) in various power states
system.acctest.convolution1_spm.pwrStateResidencyTicks::UNDEFINED  25027299375                       # Cumulative time (in ticks) in various power states
system.acctest.elem_matrix3_dma.pwrStateResidencyTicks::UNDEFINED  25027299375                       # Cumulative time (in ticks) in various power states
system.acctest.edge_tracking0_spm.pwrStateResidencyTicks::UNDEFINED  25027299375                       # Cumulative time (in ticks) in various power states
system.acctest.edge_tracking0_spm.bytes_read::.acctest.edge_tracking0.system.acctest.edge_tracking0       194576                       # Number of bytes read from this memory
system.acctest.edge_tracking0_spm.bytes_read::.acctest.edge_tracking0_dma        16384                       # Number of bytes read from this memory
system.acctest.edge_tracking0_spm.bytes_read::total       210960                       # Number of bytes read from this memory
system.acctest.edge_tracking0_spm.bytes_written::.acctest.edge_tracking0.system.acctest.edge_tracking0        81920                       # Number of bytes written to this memory
system.acctest.edge_tracking0_spm.bytes_written::.acctest.edge_tracking0_dma        65536                       # Number of bytes written to this memory
system.acctest.edge_tracking0_spm.bytes_written::total       147456                       # Number of bytes written to this memory
system.acctest.edge_tracking0_spm.num_reads::.acctest.edge_tracking0.system.acctest.edge_tracking0        48644                       # Number of read requests responded to by this memory
system.acctest.edge_tracking0_spm.num_reads::.acctest.edge_tracking0_dma          512                       # Number of read requests responded to by this memory
system.acctest.edge_tracking0_spm.num_reads::total        49156                       # Number of read requests responded to by this memory
system.acctest.edge_tracking0_spm.num_writes::.acctest.edge_tracking0.system.acctest.edge_tracking0        32768                       # Number of write requests responded to by this memory
system.acctest.edge_tracking0_spm.num_writes::.acctest.edge_tracking0_dma         2048                       # Number of write requests responded to by this memory
system.acctest.edge_tracking0_spm.num_writes::total        34816                       # Number of write requests responded to by this memory
system.acctest.edge_tracking0_spm.bw_read::.acctest.edge_tracking0.system.acctest.edge_tracking0     10282964                       # Total read bandwidth from this memory (bytes/s)
system.acctest.edge_tracking0_spm.bw_read::.acctest.edge_tracking0_dma       865863                       # Total read bandwidth from this memory (bytes/s)
system.acctest.edge_tracking0_spm.bw_read::total     11148827                       # Total read bandwidth from this memory (bytes/s)
system.acctest.edge_tracking0_spm.bw_write::.acctest.edge_tracking0.system.acctest.edge_tracking0      4329313                       # Write bandwidth from this memory (bytes/s)
system.acctest.edge_tracking0_spm.bw_write::.acctest.edge_tracking0_dma      3463451                       # Write bandwidth from this memory (bytes/s)
system.acctest.edge_tracking0_spm.bw_write::total      7792764                       # Write bandwidth from this memory (bytes/s)
system.acctest.edge_tracking0_spm.bw_total::.acctest.edge_tracking0.system.acctest.edge_tracking0     14612278                       # Total bandwidth to/from this memory (bytes/s)
system.acctest.edge_tracking0_spm.bw_total::.acctest.edge_tracking0_dma      4329313                       # Total bandwidth to/from this memory (bytes/s)
system.acctest.edge_tracking0_spm.bw_total::total     18941591                       # Total bandwidth to/from this memory (bytes/s)
system.acctest.canny_non_max0_spm.pwrStateResidencyTicks::UNDEFINED  25027299375                       # Cumulative time (in ticks) in various power states
system.acctest.canny_non_max0_spm.bytes_read::.acctest.canny_non_max0.system.acctest.canny_non_max0       254016                       # Number of bytes read from this memory
system.acctest.canny_non_max0_spm.bytes_read::.acctest.edge_tracking0_dma        65536                       # Number of bytes read from this memory
system.acctest.canny_non_max0_spm.bytes_read::total       319552                       # Number of bytes read from this memory
system.acctest.canny_non_max0_spm.bytes_written::.acctest.canny_non_max0.system.acctest.canny_non_max0        65536                       # Number of bytes written to this memory
system.acctest.canny_non_max0_spm.bytes_written::.acctest.canny_non_max0_dma       131072                       # Number of bytes written to this memory
[...]
system.cpu.icache.ReadReq_hits::.cpu.inst       129601                       # number of ReadReq hits
system.cpu.icache.ReadReq_hits::total          129601                       # number of ReadReq hits
system.cpu.icache.ReadReq_misses::.cpu.inst          249                       # number of ReadReq misses
system.cpu.icache.ReadReq_misses::total           249                       # number of ReadReq misses
system.cpu.icache.ReadReq_miss_latency::.cpu.inst     10818125                       # number of ReadReq miss cycles
system.cpu.icache.ReadReq_miss_latency::total     10818125                       # number of ReadReq miss cycles
system.cpu.icache.ReadReq_accesses::.cpu.inst       129850                       # number of ReadReq accesses(hits+misses)
system.cpu.icache.ReadReq_accesses::total       129850                       # number of ReadReq accesses(hits+misses)
system.cpu.icache.ReadReq_miss_rate::.cpu.inst     0.001918                       # miss rate for ReadReq accesses
system.cpu.icache.ReadReq_miss_rate::total     0.001918                       # miss rate for ReadReq accesses
system.cpu.icache.ReadReq_avg_miss_latency::.cpu.inst 43446.285141                       # average ReadReq miss latency
system.cpu.icache.ReadReq_avg_miss_latency::total 43446.285141                       # average ReadReq miss latency
system.cpu.icache.ReadReq_mshr_misses::.cpu.inst          249                       # number of ReadReq MSHR misses
system.cpu.icache.ReadReq_mshr_misses::total          249                       # number of ReadReq MSHR misses
system.cpu.icache.ReadReq_mshr_miss_latency::.cpu.inst     10427125                       # number of ReadReq MSHR miss cycles
system.cpu.icache.ReadReq_mshr_miss_latency::total     10427125                       # number of ReadReq MSHR miss cycles
system.cpu.icache.ReadReq_mshr_miss_rate::.cpu.inst     0.001918                       # mshr miss rate for ReadReq accesses
system.cpu.icache.ReadReq_mshr_miss_rate::total     0.001918                       # mshr miss rate for ReadReq accesses
system.cpu.icache.ReadReq_avg_mshr_miss_latency::.cpu.inst 41876.004016                       # average ReadReq mshr miss latency
system.cpu.icache.ReadReq_avg_mshr_miss_latency::total 41876.004016                       # average ReadReq mshr miss latency
system.cpu.icache.tags.pwrStateResidencyTicks::UNDEFINED  25027582500                       # Cumulative time (in ticks) in various power states
system.cpu.icache.tags.tagsinuse           392.017409                       # Cycle average of tags in use
system.cpu.icache.tags.total_refs             2297585                       # Total number of references to valid blocks.
system.cpu.icache.tags.sampled_refs               467                       # Sample count of references to valid blocks.
system.cpu.icache.tags.avg_refs           4919.882227                       # Average number of references to valid blocks.
system.cpu.icache.tags.warmup_cycle                 0                       # Cycle when the warmup percentage was hit.
system.cpu.icache.tags.occ_blocks::.cpu.inst   392.017409                       # Average occupied blocks per requestor
system.cpu.icache.tags.occ_percent::.cpu.inst     0.765659                       # Average percentage of cache occupancy
system.cpu.icache.tags.occ_percent::total     0.765659                       # Average percentage of cache occupancy
system.cpu.icache.tags.occ_task_id_blocks::1024          400                       # Occupied blocks per task id
system.cpu.icache.tags.age_task_id_blocks_1024::0            2                       # Occupied blocks per task id
system.cpu.icache.tags.age_task_id_blocks_1024::4          398                       # Occupied blocks per task id
system.cpu.icache.tags.occ_task_id_percent::1024     0.781250                       # Percentage of cache occupancy per task id
system.cpu.icache.tags.tag_accesses            259949                       # Number of tag accesses
system.cpu.icache.tags.data_accesses           259949                       # Number of data accesses
system.cpu.dtb.walker.pwrStateResidencyTicks::UNDEFINED  25027582500                       # Cumulative time (in ticks) in various power states
system.cpu.dtb.stage2_mmu.stage2_tlb.walker.pwrStateResidencyTicks::UNDEFINED  25027582500                       # Cumulative time (in ticks) in various power states
system.cpu.dcache.pwrStateResidencyTicks::UNDEFINED  25027582500                       # Cumulative time (in ticks) in various power states
system.cpu.dcache.demand_hits::.cpu.data       153941                       # number of demand (read+write) hits
system.cpu.dcache.demand_hits::total           153941                       # number of demand (read+write) hits
system.cpu.dcache.overall_hits::.cpu.data       153941                       # number of overall hits
system.cpu.dcache.overall_hits::total          153941                       # number of overall hits
system.cpu.dcache.demand_misses::.cpu.data          790                       # number of demand (read+write) misses
system.cpu.dcache.demand_misses::total            790                       # number of demand (read+write) misses
system.cpu.dcache.overall_misses::.cpu.data          790                       # number of overall misses
system.cpu.dcache.overall_misses::total           790                       # number of overall misses
system.cpu.dcache.demand_miss_latency::.cpu.data     58365000                       # number of demand (read+write) miss cycles
system.cpu.dcache.demand_miss_latency::total     58365000                       # number of demand (read+write) miss cycles
system.cpu.dcache.overall_miss_latency::.cpu.data     58365000                       # number of overall miss cycles
system.cpu.dcache.overall_miss_latency::total     58365000                       # number of overall miss cycles
system.cpu.dcache.demand_accesses::.cpu.data       154731                       # number of demand (read+write) accesses
system.cpu.dcache.demand_accesses::total       154731                       # number of demand (read+write) accesses
system.cpu.dcache.overall_accesses::.cpu.data       154731                       # number of overall (read+write) accesses
system.cpu.dcache.overall_accesses::total       154731                       # number of overall (read+write) accesses
system.cpu.dcache.demand_miss_rate::.cpu.data     0.005106                       # miss rate for demand accesses
system.cpu.dcache.demand_miss_rate::total     0.005106                       # miss rate for demand accesses
system.cpu.dcache.overall_miss_rate::.cpu.data     0.005106                       # miss rate for overall accesses
system.cpu.dcache.overall_miss_rate::total     0.005106                       # miss rate for overall accesses
system.cpu.dcache.demand_avg_miss_latency::.cpu.data 73879.746835                       # average overall miss latency
system.cpu.dcache.demand_avg_miss_latency::total 73879.746835                       # average overall miss latency
system.cpu.dcache.overall_avg_miss_latency::.cpu.data 73879.746835                       # average overall miss latency
system.cpu.dcache.overall_avg_miss_latency::total 73879.746835                       # average overall miss latency
system.cpu.dcache.blocked_cycles::no_mshrs            0                       # number of cycles access was blocked
system.cpu.dcache.blocked_cycles::no_targets            0                       # number of cycles access was blocked
system.cpu.dcache.blocked::no_mshrs                 0                       # number of cycles access was blocked
system.cpu.dcache.blocked::no_targets               0                       # number of cycles access was blocked
system.cpu.dcache.avg_blocked_cycles::no_mshrs          nan                       # average number of cycles each access was blocked
system.cpu.dcache.avg_blocked_cycles::no_targets          nan                       # average number of cycles each access was blocked
system.cpu.dcache.writebacks::.writebacks          300                       # number of writebacks
system.cpu.dcache.writebacks::total               300                       # number of writebacks
system.cpu.dcache.demand_mshr_hits::.cpu.data          181                       # number of demand (read+write) MSHR hits
system.cpu.dcache.demand_mshr_hits::total          181                       # number of demand (read+write) MSHR hits
system.cpu.dcache.overall_mshr_hits::.cpu.data          181                       # number of overall MSHR hits
system.cpu.dcache.overall_mshr_hits::total          181                       # number of overall MSHR hits
system.cpu.dcache.demand_mshr_misses::.cpu.data          609                       # number of demand (read+write) MSHR misses
system.cpu.dcache.demand_mshr_misses::total          609                       # number of demand (read+write) MSHR misses
system.cpu.dcache.overall_mshr_misses::.cpu.data          609                       # number of overall MSHR misses
system.cpu.dcache.overall_mshr_misses::total          609                       # number of overall MSHR misses
system.cpu.dcache.overall_mshr_uncacheable_misses::.cpu.data         5784                       # number of overall MSHR uncacheable misses
system.cpu.dcache.overall_mshr_uncacheable_misses::total         5784                       # number of overall MSHR uncacheable misses
system.cpu.dcache.demand_mshr_miss_latency::.cpu.data     44471250                       # number of demand (read+write) MSHR miss cycles
system.cpu.dcache.demand_mshr_miss_latency::total     44471250                       # number of demand (read+write) MSHR miss cycles
system.cpu.dcache.overall_mshr_miss_latency::.cpu.data     44471250                       # number of overall MSHR miss cycles
system.cpu.dcache.overall_mshr_miss_latency::total     44471250                       # number of overall MSHR miss cycles
system.cpu.dcache.overall_mshr_uncacheable_latency::.cpu.data     12700500                       # number of overall MSHR uncacheable cycles
system.cpu.dcache.overall_mshr_uncacheable_latency::total     12700500                       # number of overall MSHR uncacheable cycles
system.cpu.dcache.demand_mshr_miss_rate::.cpu.data     0.003936                       # mshr miss rate for demand accesses
system.cpu.dcache.demand_mshr_miss_rate::total     0.003936                       # mshr miss rate for demand accesses
system.cpu.dcache.overall_mshr_miss_rate::.cpu.data     0.003936                       # mshr miss rate for overall accesses
system.cpu.dcache.overall_mshr_miss_rate::total     0.003936                       # mshr miss rate for overall accesses
system.cpu.dcache.demand_avg_mshr_miss_latency::.cpu.data 73023.399015                       # average overall mshr miss latency
system.cpu.dcache.demand_avg_mshr_miss_latency::total 73023.399015                       # average overall mshr miss latency
system.cpu.dcache.overall_avg_mshr_miss_latency::.cpu.data 73023.399015                       # average overall mshr miss latency
system.cpu.dcache.overall_avg_mshr_miss_latency::total 73023.399015                       # average overall mshr miss latency
system.cpu.dcache.overall_avg_mshr_uncacheable_latency::.cpu.data  2195.798755                       # average overall mshr uncacheable latency
system.cpu.dcache.overall_avg_mshr_uncacheable_latency::total  2195.798755                       # average overall mshr uncacheable latency
system.cpu.dcache.replacements                    489                       # number of replacements
system.cpu.dcache.ReadReq_hits::.cpu.data        94577                       # number of ReadReq hits
system.cpu.dcache.ReadReq_hits::total           94577                       # number of ReadReq hits
system.cpu.dcache.ReadReq_misses::.cpu.data          403                       # number of ReadReq misses
system.cpu.dcache.ReadReq_misses::total           403                       # number of ReadReq misses
system.cpu.dcache.ReadReq_miss_latency::.cpu.data     30613125                       # number of ReadReq miss cycles
system.cpu.dcache.ReadReq_miss_latency::total     30613125                       # number of ReadReq miss cycles
system.cpu.dcache.ReadReq_accesses::.cpu.data        94980                       # number of ReadReq accesses(hits+misses)
system.cpu.dcache.ReadReq_accesses::total        94980                       # number of ReadReq accesses(hits+misses)
system.cpu.dcache.ReadReq_miss_rate::.cpu.data     0.004243                       # miss rate for ReadReq accesses
system.cpu.dcache.ReadReq_miss_rate::total     0.004243                       # miss rate for ReadReq accesses
system.cpu.dcache.ReadReq_avg_miss_latency::.cpu.data 75963.089330                       # average ReadReq miss latency
system.cpu.dcache.ReadReq_avg_miss_latency::total 75963.089330                       # average ReadReq miss latency
system.cpu.dcache.ReadReq_mshr_misses::.cpu.data          403                       # number of ReadReq MSHR misses
system.cpu.dcache.ReadReq_mshr_misses::total          403                       # number of ReadReq MSHR misses
system.cpu.dcache.ReadReq_mshr_uncacheable::.cpu.data          586                       # number of ReadReq MSHR uncacheable
system.cpu.dcache.ReadReq_mshr_uncacheable::total          586                       # number of ReadReq MSHR uncacheable
system.cpu.dcache.ReadReq_mshr_miss_latency::.cpu.data     29984750                       # number of ReadReq MSHR miss cycles
system.cpu.dcache.ReadReq_mshr_miss_latency::total     29984750                       # number of ReadReq MSHR miss cycles
system.cpu.dcache.ReadReq_mshr_uncacheable_latency::.cpu.data     12700500                       # number of ReadReq MSHR uncacheable cycles
system.cpu.dcache.ReadReq_mshr_uncacheable_latency::total     12700500                       # number of ReadReq MSHR uncacheable cycles
system.cpu.dcache.ReadReq_mshr_miss_rate::.cpu.data     0.004243                       # mshr miss rate for ReadReq accesses
system.cpu.dcache.ReadReq_mshr_miss_rate::total     0.004243                       # mshr miss rate for ReadReq accesses
system.cpu.dcache.ReadReq_avg_mshr_miss_latency::.cpu.data 74403.846154                       # average ReadReq mshr miss latency
system.cpu.dcache.ReadReq_avg_mshr_miss_latency::total 74403.846154                       # average ReadReq mshr miss latency
system.cpu.dcache.ReadReq_avg_mshr_uncacheable_latency::.cpu.data 21673.208191                       # average ReadReq mshr uncacheable latency
system.cpu.dcache.ReadReq_avg_mshr_uncacheable_latency::total 21673.208191                       # average ReadReq mshr uncacheable latency
system.cpu.dcache.WriteReq_hits::.cpu.data        59364                       # number of WriteReq hits
system.cpu.dcache.WriteReq_hits::total          59364                       # number of WriteReq hits
system.cpu.dcache.WriteReq_misses::.cpu.data          387                       # number of WriteReq misses
system.cpu.dcache.WriteReq_misses::total          387                       # number of WriteReq misses
system.cpu.dcache.WriteReq_miss_latency::.cpu.data     27751875                       # number of WriteReq miss cycles
system.cpu.dcache.WriteReq_miss_latency::total     27751875                       # number of WriteReq miss cycles
system.cpu.dcache.WriteReq_accesses::.cpu.data        59751                       # number of WriteReq accesses(hits+misses)
system.cpu.dcache.WriteReq_accesses::total        59751                       # number of WriteReq accesses(hits+misses)
system.cpu.dcache.WriteReq_miss_rate::.cpu.data     0.006477                       # miss rate for WriteReq accesses
system.cpu.dcache.WriteReq_miss_rate::total     0.006477                       # miss rate for WriteReq accesses
system.cpu.dcache.WriteReq_avg_miss_latency::.cpu.data 71710.271318                       # average WriteReq miss latency
system.cpu.dcache.WriteReq_avg_miss_latency::total 71710.271318                       # average WriteReq miss latency
system.cpu.dcache.WriteReq_mshr_hits::.cpu.data          181                       # number of WriteReq MSHR hits
system.cpu.dcache.WriteReq_mshr_hits::total          181                       # number of WriteReq MSHR hits
system.cpu.dcache.WriteReq_mshr_misses::.cpu.data          206                       # number of WriteReq MSHR misses
system.cpu.dcache.WriteReq_mshr_misses::total          206                       # number of WriteReq MSHR misses
system.cpu.dcache.WriteReq_mshr_uncacheable::.cpu.data         5198                       # number of WriteReq MSHR uncacheable
system.cpu.dcache.WriteReq_mshr_uncacheable::total         5198                       # number of WriteReq MSHR uncacheable
system.cpu.dcache.WriteReq_mshr_miss_latency::.cpu.data     14486500                       # number of WriteReq MSHR miss cycles
system.cpu.dcache.WriteReq_mshr_miss_latency::total     14486500                       # number of WriteReq MSHR miss cycles
system.cpu.dcache.WriteReq_mshr_miss_rate::.cpu.data     0.003448                       # mshr miss rate for WriteReq accesses
system.cpu.dcache.WriteReq_mshr_miss_rate::total     0.003448                       # mshr miss rate for WriteReq accesses
system.cpu.dcache.WriteReq_avg_mshr_miss_latency::.cpu.data 70322.815534                       # average WriteReq mshr miss latency
system.cpu.dcache.WriteReq_avg_mshr_miss_latency::total 70322.815534                       # average WriteReq mshr miss latency
system.cpu.dcache.tags.pwrStateResidencyTicks::UNDEFINED  25027582500                       # Cumulative time (in ticks) in various power states
system.cpu.dcache.tags.tagsinuse           454.578584                       # Cycle average of tags in use
system.cpu.dcache.tags.total_refs              304526                       # Total number of references to valid blocks.
system.cpu.dcache.tags.sampled_refs               960                       # Sample count of references to valid blocks.
system.cpu.dcache.tags.avg_refs            317.214583                       # Average number of references to valid blocks.
system.cpu.dcache.tags.warmup_cycle                 0                       # Cycle when the warmup percentage was hit.
system.cpu.dcache.tags.occ_blocks::.cpu.data   454.578584                       # Average occupied blocks per requestor
system.cpu.dcache.tags.occ_percent::.cpu.data     0.887849                       # Average percentage of cache occupancy
system.cpu.dcache.tags.occ_percent::total     0.887849                       # Average percentage of cache occupancy
system.cpu.dcache.tags.occ_task_id_blocks::1024          471                       # Occupied blocks per task id
system.cpu.dcache.tags.age_task_id_blocks_1024::0            2                       # Occupied blocks per task id
system.cpu.dcache.tags.age_task_id_blocks_1024::1            2                       # Occupied blocks per task id
system.cpu.dcache.tags.age_task_id_blocks_1024::3           34                       # Occupied blocks per task id
system.cpu.dcache.tags.age_task_id_blocks_1024::4          433                       # Occupied blocks per task id
system.cpu.dcache.tags.occ_task_id_percent::1024     0.919922                       # Percentage of cache occupancy per task id
system.cpu.dcache.tags.tag_accesses            619533                       # Number of tag accesses
system.cpu.dcache.tags.data_accesses           619533                       # Number of data accesses
system.cpu.itb.walker.pwrStateResidencyTicks::UNDEFINED  25027582500                       # Cumulative time (in ticks) in various power states
system.cpu.itb.stage2_mmu.stage2_tlb.walker.pwrStateResidencyTicks::UNDEFINED  25027582500                       # Cumulative time (in ticks) in various power states

---------- End Simulation Statistics   ----------
