
---------- Begin Simulation Statistics ----------
final_tick                               482829435585                       # Number of ticks from beginning of simulation (restored from checkpoints and never reset)
host_inst_rate                                 124487                       # Simulator instruction rate (inst/s)
host_mem_usage                                4605704                       # Number of bytes of host memory used
host_op_rate                                   151731                       # Simulator op (including micro ops) rate (op/s)
host_seconds                                  7771.91                       # Real time elapsed on the host
host_tick_rate                               62124968                       # Simulator tick rate (ticks/s)
sim_freq                                 1000000000000                       # Frequency of simulated ticks
sim_insts                                   967500148                       # Number of instructions simulated
sim_ops                                    1179242047                       # Number of ops (including micro ops) simulated
sim_seconds                                  0.482829                       # Number of seconds simulated
sim_ticks                                482829435585                       # Number of ticks simulated
system.cpu_cluster.cpus.branchPred.BTBCorrect            0                       # Number of correct BTB predictions (this stat may not work properly.
system.cpu_cluster.cpus.branchPred.BTBHitPct    93.623741                       # BTB Hit Percentage
system.cpu_cluster.cpus.branchPred.BTBHits     36044233                       # Number of BTB hits
system.cpu_cluster.cpus.branchPred.BTBLookups     38499031                       # Number of BTB lookups
system.cpu_cluster.cpus.branchPred.RASInCorrect            0                       # Number of incorrect RAS predictions.
system.cpu_cluster.cpus.branchPred.condIncorrect      3838248                       # Number of conditional branches incorrect
system.cpu_cluster.cpus.branchPred.condPredicted    115188157                       # Number of conditional branches predicted
system.cpu_cluster.cpus.branchPred.indirectHits       190880                       # Number of indirect target hits.
system.cpu_cluster.cpus.branchPred.indirectLookups       193587                       # Number of indirect predictor lookups.
system.cpu_cluster.cpus.branchPred.indirectMisses         2707                       # Number of indirect misses.
system.cpu_cluster.cpus.branchPred.lookups    128594630                       # Number of BP lookups
system.cpu_cluster.cpus.branchPred.usedRAS      5665499                       # Number of times the RAS was used to get a target.
system.cpu_cluster.cpus.branchPredindirectMispredicted        11909                       # Number of mispredicted indirect branches.
system.cpu_cluster.cpus.committedInsts      967500148                       # Number of instructions committed
system.cpu_cluster.cpus.committedOps       1179242047                       # Number of ops (including micro ops) committed
system.cpu_cluster.cpus.cpi                  1.397895                       # CPI: cycles per instruction
system.cpu_cluster.cpus.discardedOps         10670041                       # Number of ops (including micro ops) which were discarded before commit
system.cpu_cluster.cpus.dtb.accesses                0                       # DTB accesses
system.cpu_cluster.cpus.dtb.align_faults            0                       # Number of TLB faults due to alignment restrictions
system.cpu_cluster.cpus.dtb.domain_faults            0                       # Number of TLB faults due to domain restrictions
system.cpu_cluster.cpus.dtb.flush_entries            0                       # Number of entries that have been flushed from TLB
system.cpu_cluster.cpus.dtb.flush_tlb               0                       # Number of times complete TLB was flushed
system.cpu_cluster.cpus.dtb.flush_tlb_asid            0                       # Number of times TLB was flushed by ASID
system.cpu_cluster.cpus.dtb.flush_tlb_mva            0                       # Number of times TLB was flushed by MVA
system.cpu_cluster.cpus.dtb.flush_tlb_mva_asid            0                       # Number of times TLB was flushed by MVA & ASID
system.cpu_cluster.cpus.dtb.hits                    0                       # DTB hits
system.cpu_cluster.cpus.dtb.inst_accesses            0                       # ITB inst accesses
system.cpu_cluster.cpus.dtb.inst_hits               0                       # ITB inst hits
system.cpu_cluster.cpus.dtb.inst_misses             0                       # ITB inst misses
system.cpu_cluster.cpus.dtb.misses                  0                       # DTB misses
system.cpu_cluster.cpus.dtb.perms_faults            0                       # Number of TLB faults due to permissions restrictions
system.cpu_cluster.cpus.dtb.prefetch_faults            0                       # Number of TLB faults due to prefetch
system.cpu_cluster.cpus.dtb.read_accesses            0                       # DTB read accesses
system.cpu_cluster.cpus.dtb.read_hits               0                       # DTB read hits
system.cpu_cluster.cpus.dtb.read_misses             0                       # DTB read misses
system.cpu_cluster.cpus.dtb.stage2_mmu.stage2_tlb.accesses            0                       # DTB accesses
system.cpu_cluster.cpus.dtb.stage2_mmu.stage2_tlb.align_faults            0                       # Number of TLB faults due to alignment restrictions
system.cpu_cluster.cpus.dtb.stage2_mmu.stage2_tlb.domain_faults            0                       # Number of TLB faults due to domain restrictions
system.cpu_cluster.cpus.dtb.stage2_mmu.stage2_tlb.flush_entries            0                       # Number of entries that have been flushed from TLB
system.cpu_cluster.cpus.dtb.stage2_mmu.stage2_tlb.flush_tlb            0                       # Number of times complete TLB was flushed
system.cpu_cluster.cpus.dtb.stage2_mmu.stage2_tlb.flush_tlb_asid            0                       # Number of times TLB was flushed by ASID
system.cpu_cluster.cpus.dtb.stage2_mmu.stage2_tlb.flush_tlb_mva            0                       # Number of times TLB was flushed by MVA
system.cpu_cluster.cpus.dtb.stage2_mmu.stage2_tlb.flush_tlb_mva_asid            0                       # Number of times TLB was flushed by MVA & ASID
system.cpu_cluster.cpus.dtb.stage2_mmu.stage2_tlb.hits            0                       # DTB hits
system.cpu_cluster.cpus.dtb.stage2_mmu.stage2_tlb.inst_accesses            0                       # ITB inst accesses
system.cpu_cluster.cpus.dtb.stage2_mmu.stage2_tlb.inst_hits            0                       # ITB inst hits
system.cpu_cluster.cpus.dtb.stage2_mmu.stage2_tlb.inst_misses            0                       # ITB inst misses
system.cpu_cluster.cpus.dtb.stage2_mmu.stage2_tlb.misses            0                       # DTB misses
system.cpu_cluster.cpus.dtb.stage2_mmu.stage2_tlb.perms_faults            0                       # Number of TLB faults due to permissions restrictions
system.cpu_cluster.cpus.dtb.stage2_mmu.stage2_tlb.prefetch_faults            0                       # Number of TLB faults due to prefetch
system.cpu_cluster.cpus.dtb.stage2_mmu.stage2_tlb.read_accesses            0                       # DTB read accesses
system.cpu_cluster.cpus.dtb.stage2_mmu.stage2_tlb.read_hits            0                       # DTB read hits
system.cpu_cluster.cpus.dtb.stage2_mmu.stage2_tlb.read_misses            0                       # DTB read misses
system.cpu_cluster.cpus.dtb.stage2_mmu.stage2_tlb.walker.walkRequestOrigin_Requested::Data            0                       # Table walker requests started/completed, data/inst
system.cpu_cluster.cpus.dtb.stage2_mmu.stage2_tlb.walker.walkRequestOrigin_Requested::Inst            0                       # Table walker requests started/completed, data/inst
system.cpu_cluster.cpus.dtb.stage2_mmu.stage2_tlb.walker.walkRequestOrigin_Requested::total            0                       # Table walker requests started/completed, data/inst
system.cpu_cluster.cpus.dtb.stage2_mmu.stage2_tlb.walker.walkRequestOrigin_Completed::Data            0                       # Table walker requests started/completed, data/inst
system.cpu_cluster.cpus.dtb.stage2_mmu.stage2_tlb.walker.walkRequestOrigin_Completed::Inst            0                       # Table walker requests started/completed, data/inst
system.cpu_cluster.cpus.dtb.stage2_mmu.stage2_tlb.walker.walkRequestOrigin_Completed::total            0                       # Table walker requests started/completed, data/inst
system.cpu_cluster.cpus.dtb.stage2_mmu.stage2_tlb.walker.walkRequestOrigin::total            0                       # Table walker requests started/completed, data/inst
system.cpu_cluster.cpus.dtb.stage2_mmu.stage2_tlb.walker.walks            0                       # Table walker walks requested
system.cpu_cluster.cpus.dtb.stage2_mmu.stage2_tlb.write_accesses            0                       # DTB write accesses
system.cpu_cluster.cpus.dtb.stage2_mmu.stage2_tlb.write_hits            0                       # DTB write hits
system.cpu_cluster.cpus.dtb.stage2_mmu.stage2_tlb.write_misses            0                       # DTB write misses
system.cpu_cluster.cpus.dtb.walker.walkRequestOrigin_Requested::Data            0                       # Table walker requests started/completed, data/inst
system.cpu_cluster.cpus.dtb.walker.walkRequestOrigin_Requested::Inst            0                       # Table walker requests started/completed, data/inst
system.cpu_cluster.cpus.dtb.walker.walkRequestOrigin_Requested::total            0                       # Table walker requests started/completed, data/inst
system.cpu_cluster.cpus.dtb.walker.walkRequestOrigin_Completed::Data            0                       # Table walker requests started/completed, data/inst
system.cpu_cluster.cpus.dtb.walker.walkRequestOrigin_Completed::Inst            0                       # Table walker requests started/completed, data/inst
system.cpu_cluster.cpus.dtb.walker.walkRequestOrigin_Completed::total            0                       # Table walker requests started/completed, data/inst
system.cpu_cluster.cpus.dtb.walker.walkRequestOrigin::total            0                       # Table walker requests started/completed, data/inst
system.cpu_cluster.cpus.dtb.walker.walks            0                       # Table walker walks requested
system.cpu_cluster.cpus.dtb.write_accesses            0                       # DTB write accesses
system.cpu_cluster.cpus.dtb.write_hits              0                       # DTB write hits
system.cpu_cluster.cpus.dtb.write_misses            0                       # DTB write misses
system.cpu_cluster.cpus.fetch2.amo_instructions          229                       # Number of memory atomic instructions successfully decoded
system.cpu_cluster.cpus.fetch2.fp_instructions            0                       # Number of floating point instructions successfully decoded
system.cpu_cluster.cpus.fetch2.int_instructions    494273472                       # Number of integer instructions successfully decoded
system.cpu_cluster.cpus.fetch2.load_instructions    210668814                       # Number of memory load instructions successfully decoded
system.cpu_cluster.cpus.fetch2.store_instructions     59730222                       # Number of memory store instructions successfully decoded
system.cpu_cluster.cpus.fetch2.vec_instructions       308883                       # Number of SIMD instructions successfully decoded
system.cpu_cluster.cpus.idleCycles           61440181                       # Total number of cycles that the object has spent stopped
system.cpu_cluster.cpus.ipc                  0.715361                       # IPC: instructions per cycle
system.cpu_cluster.cpus.itb.accesses                0                       # DTB accesses
system.cpu_cluster.cpus.itb.align_faults            0                       # Number of TLB faults due to alignment restrictions
system.cpu_cluster.cpus.itb.domain_faults            0                       # Number of TLB faults due to domain restrictions
system.cpu_cluster.cpus.itb.flush_entries            0                       # Number of entries that have been flushed from TLB
system.cpu_cluster.cpus.itb.flush_tlb               0                       # Number of times complete TLB was flushed
system.cpu_cluster.cpus.itb.flush_tlb_asid            0                       # Number of times TLB was flushed by ASID
system.cpu_cluster.cpus.itb.flush_tlb_mva            0                       # Number of times TLB was flushed by MVA
system.cpu_cluster.cpus.itb.flush_tlb_mva_asid            0                       # Number of times TLB was flushed by MVA & ASID
system.cpu_cluster.cpus.itb.hits                    0                       # DTB hits
system.cpu_cluster.cpus.itb.inst_accesses            0                       # ITB inst accesses
system.cpu_cluster.cpus.itb.inst_hits               0                       # ITB inst hits
system.cpu_cluster.cpus.itb.inst_misses             0                       # ITB inst misses
system.cpu_cluster.cpus.itb.misses                  0                       # DTB misses
system.cpu_cluster.cpus.itb.perms_faults            0                       # Number of TLB faults due to permissions restrictions
system.cpu_cluster.cpus.itb.prefetch_faults            0                       # Number of TLB faults due to prefetch
system.cpu_cluster.cpus.itb.read_accesses            0                       # DTB read accesses
system.cpu_cluster.cpus.itb.read_hits               0                       # DTB read hits
system.cpu_cluster.cpus.itb.read_misses             0                       # DTB read misses
system.cpu_cluster.cpus.itb.stage2_mmu.stage2_tlb.accesses            0                       # DTB accesses
system.cpu_cluster.cpus.itb.stage2_mmu.stage2_tlb.align_faults            0                       # Number of TLB faults due to alignment restrictions
system.cpu_cluster.cpus.itb.stage2_mmu.stage2_tlb.domain_faults            0                       # Number of TLB faults due to domain restrictions
system.cpu_cluster.cpus.itb.stage2_mmu.stage2_tlb.flush_entries            0                       # Number of entries that have been flushed from TLB
system.cpu_cluster.cpus.itb.stage2_mmu.stage2_tlb.flush_tlb            0                       # Number of times complete TLB was flushed
system.cpu_cluster.cpus.itb.stage2_mmu.stage2_tlb.flush_tlb_asid            0                       # Number of times TLB was flushed by ASID
system.cpu_cluster.cpus.itb.stage2_mmu.stage2_tlb.flush_tlb_mva            0                       # Number of times TLB was flushed by MVA
system.cpu_cluster.cpus.itb.stage2_mmu.stage2_tlb.flush_tlb_mva_asid            0                       # Number of times TLB was flushed by MVA & ASID
system.cpu_cluster.cpus.itb.stage2_mmu.stage2_tlb.hits            0                       # DTB hits
system.cpu_cluster.cpus.itb.stage2_mmu.stage2_tlb.inst_accesses            0                       # ITB inst accesses
system.cpu_cluster.cpus.itb.stage2_mmu.stage2_tlb.inst_hits            0                       # ITB inst hits
system.cpu_cluster.cpus.itb.stage2_mmu.stage2_tlb.inst_misses            0                       # ITB inst misses
system.cpu_cluster.cpus.itb.stage2_mmu.stage2_tlb.misses            0                       # DTB misses
system.cpu_cluster.cpus.itb.stage2_mmu.stage2_tlb.perms_faults            0                       # Number of TLB faults due to permissions restrictions
system.cpu_cluster.cpus.itb.stage2_mmu.stage2_tlb.prefetch_faults            0                       # Number of TLB faults due to prefetch
system.cpu_cluster.cpus.itb.stage2_mmu.stage2_tlb.read_accesses            0                       # DTB read accesses
system.cpu_cluster.cpus.itb.stage2_mmu.stage2_tlb.read_hits            0                       # DTB read hits
system.cpu_cluster.cpus.itb.stage2_mmu.stage2_tlb.read_misses            0                       # DTB read misses
system.cpu_cluster.cpus.itb.stage2_mmu.stage2_tlb.walker.walkRequestOrigin_Requested::Data            0                       # Table walker requests started/completed, data/inst
system.cpu_cluster.cpus.itb.stage2_mmu.stage2_tlb.walker.walkRequestOrigin_Requested::Inst            0                       # Table walker requests started/completed, data/inst
system.cpu_cluster.cpus.itb.stage2_mmu.stage2_tlb.walker.walkRequestOrigin_Requested::total            0                       # Table walker requests started/completed, data/inst
system.cpu_cluster.cpus.itb.stage2_mmu.stage2_tlb.walker.walkRequestOrigin_Completed::Data            0                       # Table walker requests started/completed, data/inst
system.cpu_cluster.cpus.itb.stage2_mmu.stage2_tlb.walker.walkRequestOrigin_Completed::Inst            0                       # Table walker requests started/completed, data/inst
system.cpu_cluster.cpus.itb.stage2_mmu.stage2_tlb.walker.walkRequestOrigin_Completed::total            0                       # Table walker requests started/completed, data/inst
system.cpu_cluster.cpus.itb.stage2_mmu.stage2_tlb.walker.walkRequestOrigin::total            0                       # Table walker requests started/completed, data/inst
system.cpu_cluster.cpus.itb.stage2_mmu.stage2_tlb.walker.walks            0                       # Table walker walks requested
system.cpu_cluster.cpus.itb.stage2_mmu.stage2_tlb.write_accesses            0                       # DTB write accesses
system.cpu_cluster.cpus.itb.stage2_mmu.stage2_tlb.write_hits            0                       # DTB write hits
system.cpu_cluster.cpus.itb.stage2_mmu.stage2_tlb.write_misses            0                       # DTB write misses
system.cpu_cluster.cpus.itb.walker.walkRequestOrigin_Requested::Data            0                       # Table walker requests started/completed, data/inst
system.cpu_cluster.cpus.itb.walker.walkRequestOrigin_Requested::Inst            0                       # Table walker requests started/completed, data/inst
system.cpu_cluster.cpus.itb.walker.walkRequestOrigin_Requested::total            0                       # Table walker requests started/completed, data/inst
system.cpu_cluster.cpus.itb.walker.walkRequestOrigin_Completed::Data            0                       # Table walker requests started/completed, data/inst
system.cpu_cluster.cpus.itb.walker.walkRequestOrigin_Completed::Inst            0                       # Table walker requests started/completed, data/inst
system.cpu_cluster.cpus.itb.walker.walkRequestOrigin_Completed::total            0                       # Table walker requests started/completed, data/inst
system.cpu_cluster.cpus.itb.walker.walkRequestOrigin::total            0                       # Table walker requests started/completed, data/inst
system.cpu_cluster.cpus.itb.walker.walks            0                       # Table walker walks requested
system.cpu_cluster.cpus.itb.write_accesses            0                       # DTB write accesses
system.cpu_cluster.cpus.itb.write_hits              0                       # DTB write hits
system.cpu_cluster.cpus.itb.write_misses            0                       # DTB write misses
system.cpu_cluster.cpus.numCycles          1352463405                       # number of cpu cycles simulated
system.cpu_cluster.cpus.numFetchSuspends            0                       # Number of times Execute suspended instruction fetching
system.cpu_cluster.cpus.numWorkItemsCompleted            0                       # number of work items this cpu completed
system.cpu_cluster.cpus.numWorkItemsStarted            0                       # number of work items this cpu started
system.cpu_cluster.cpus.op_class_0::No_OpClass        56851      0.00%      0.00% # Class of committed instruction
system.cpu_cluster.cpus.op_class_0::IntAlu    721806922     61.21%     61.21% # Class of committed instruction
system.cpu_cluster.cpus.op_class_0::IntMult        24971      0.00%     61.22% # Class of committed instruction
system.cpu_cluster.cpus.op_class_0::IntDiv           41      0.00%     61.22% # Class of committed instruction
system.cpu_cluster.cpus.op_class_0::FloatAdd         4320      0.00%     61.22% # Class of committed instruction
system.cpu_cluster.cpus.op_class_0::FloatCmp           12      0.00%     61.22% # Class of committed instruction
system.cpu_cluster.cpus.op_class_0::FloatCvt         4321      0.00%     61.22% # Class of committed instruction
system.cpu_cluster.cpus.op_class_0::FloatMult            0      0.00%     61.22% # Class of committed instruction
system.cpu_cluster.cpus.op_class_0::FloatMultAcc            0      0.00%     61.22% # Class of committed instruction
system.cpu_cluster.cpus.op_class_0::FloatDiv         4323      0.00%     61.22% # Class of committed instruction
system.cpu_cluster.cpus.op_class_0::FloatMisc        17179      0.00%     61.22% # Class of committed instruction
system.cpu_cluster.cpus.op_class_0::FloatSqrt            0      0.00%     61.22% # Class of committed instruction
system.cpu_cluster.cpus.op_class_0::SimdAdd        16138      0.00%     61.22% # Class of committed instruction
system.cpu_cluster.cpus.op_class_0::SimdAddAcc            0      0.00%     61.22% # Class of committed instruction
system.cpu_cluster.cpus.op_class_0::SimdAlu        16155      0.00%     61.22% # Class of committed instruction
system.cpu_cluster.cpus.op_class_0::SimdCmp        17186      0.00%     61.22% # Class of committed instruction
system.cpu_cluster.cpus.op_class_0::SimdCvt            2      0.00%     61.22% # Class of committed instruction
system.cpu_cluster.cpus.op_class_0::SimdMisc       218684      0.02%     61.24% # Class of committed instruction
system.cpu_cluster.cpus.op_class_0::SimdMult            0      0.00%     61.24% # Class of committed instruction
system.cpu_cluster.cpus.op_class_0::SimdMultAcc            0      0.00%     61.24% # Class of committed instruction
system.cpu_cluster.cpus.op_class_0::SimdShift            2      0.00%     61.24% # Class of committed instruction
system.cpu_cluster.cpus.op_class_0::SimdShiftAcc            0      0.00%     61.24% # Class of committed instruction
system.cpu_cluster.cpus.op_class_0::SimdDiv            0      0.00%     61.24% # Class of committed instruction
system.cpu_cluster.cpus.op_class_0::SimdSqrt            0      0.00%     61.24% # Class of committed instruction
system.cpu_cluster.cpus.op_class_0::SimdFloatAdd            0      0.00%     61.24% # Class of committed instruction
system.cpu_cluster.cpus.op_class_0::SimdFloatAlu            0      0.00%     61.24% # Class of committed instruction
system.cpu_cluster.cpus.op_class_0::SimdFloatCmp            0      0.00%     61.24% # Class of committed instruction
system.cpu_cluster.cpus.op_class_0::SimdFloatCvt            0      0.00%     61.24% # Class of committed instruction
system.cpu_cluster.cpus.op_class_0::SimdFloatDiv            0      0.00%     61.24% # Class of committed instruction
system.cpu_cluster.cpus.op_class_0::SimdFloatMisc            0      0.00%     61.24% # Class of committed instruction
system.cpu_cluster.cpus.op_class_0::SimdFloatMult            0      0.00%     61.24% # Class of committed instruction
system.cpu_cluster.cpus.op_class_0::SimdFloatMultAcc            0      0.00%     61.24% # Class of committed instruction
system.cpu_cluster.cpus.op_class_0::SimdFloatSqrt            0      0.00%     61.24% # Class of committed instruction
system.cpu_cluster.cpus.op_class_0::SimdReduceAdd            0      0.00%     61.24% # Class of committed instruction
system.cpu_cluster.cpus.op_class_0::SimdReduceAlu            0      0.00%     61.24% # Class of committed instruction
system.cpu_cluster.cpus.op_class_0::SimdReduceCmp            0      0.00%     61.24% # Class of committed instruction
system.cpu_cluster.cpus.op_class_0::SimdFloatReduceAdd            0      0.00%     61.24% # Class of committed instruction
system.cpu_cluster.cpus.op_class_0::SimdFloatReduceCmp            0      0.00%     61.24% # Class of committed instruction
system.cpu_cluster.cpus.op_class_0::SimdAes            0      0.00%     61.24% # Class of committed instruction
system.cpu_cluster.cpus.op_class_0::SimdAesMix            0      0.00%     61.24% # Class of committed instruction
system.cpu_cluster.cpus.op_class_0::SimdSha1Hash            0      0.00%     61.24% # Class of committed instruction
system.cpu_cluster.cpus.op_class_0::SimdSha1Hash2            0      0.00%     61.24% # Class of committed instruction
system.cpu_cluster.cpus.op_class_0::SimdSha256Hash            0      0.00%     61.24% # Class of committed instruction
system.cpu_cluster.cpus.op_class_0::SimdSha256Hash2            0      0.00%     61.24% # Class of committed instruction
system.cpu_cluster.cpus.op_class_0::SimdShaSigma2            0      0.00%     61.24% # Class of committed instruction
system.cpu_cluster.cpus.op_class_0::SimdShaSigma3            0      0.00%     61.24% # Class of committed instruction
system.cpu_cluster.cpus.op_class_0::SimdPredAlu            0      0.00%     61.24% # Class of committed instruction
system.cpu_cluster.cpus.op_class_0::MemRead    289383123     24.54%     85.78% # Class of committed instruction
system.cpu_cluster.cpus.op_class_0::MemWrite    167671817     14.22%    100.00% # Class of committed instruction
system.cpu_cluster.cpus.op_class_0::FloatMemRead            0      0.00%    100.00% # Class of committed instruction
system.cpu_cluster.cpus.op_class_0::FloatMemWrite            0      0.00%    100.00% # Class of committed instruction
system.cpu_cluster.cpus.op_class_0::IprAccess            0      0.00%    100.00% # Class of committed instruction
system.cpu_cluster.cpus.op_class_0::InstPrefetch            0      0.00%    100.00% # Class of committed instruction
system.cpu_cluster.cpus.op_class_0::total   1179242047                       # Class of committed instruction
system.cpu_cluster.cpus.tickCycles         1291023224                       # Number of cycles that the object actually ticked
system.cpu_cluster.cpus.workload.numSyscalls         8691                       # Number of system calls
system.membus.snoop_filter.hit_multi_requests            1                       # Number of requests hitting in the snoop filter with multiple (>1) holders of the requested data.
system.membus.snoop_filter.hit_multi_snoops            0                       # Number of snoops hitting in the snoop filter with multiple (>1) holders of the requested data.
system.membus.snoop_filter.hit_single_requests       146230                       # Number of requests hitting in the snoop filter with a single holder of the requested data.
system.membus.snoop_filter.hit_single_snoops            0                       # Number of snoops hitting in the snoop filter with a single holder of the requested data.
system.membus.snoop_filter.tot_requests        293483                       # Total number of requests made to the snoop filter.
system.membus.snoop_filter.tot_snoops               0                       # Total number of snoops made to the snoop filter.
system.membus.pwrStateResidencyTicks::UNDEFINED 482829435585                       # Cumulative time (in ticks) in various power states
system.membus.trans_dist::ReadResp             137407                       # Transaction distribution
system.membus.trans_dist::WritebackDirty        13876                       # Transaction distribution
system.membus.trans_dist::CleanEvict           132353                       # Transaction distribution
system.membus.trans_dist::ReadExReq              9832                       # Transaction distribution
system.membus.trans_dist::ReadExResp             9832                       # Transaction distribution
system.membus.trans_dist::ReadCleanReq         123073                       # Transaction distribution
system.membus.trans_dist::ReadSharedReq         14335                       # Transaction distribution
system.membus.trans_dist::InvalidateReq            14                       # Transaction distribution
system.membus.pkt_count_system.cpu_cluster.cpus.icache.mem_side::system.mem_ctrls.port       368705                       # Packet count per connected master and slave (bytes)
system.membus.pkt_count_system.cpu_cluster.cpus.icache.mem_side::total       368705                       # Packet count per connected master and slave (bytes)
system.membus.pkt_count_system.cpu_cluster.cpus.dcache.mem_side::system.mem_ctrls.port        72017                       # Packet count per connected master and slave (bytes)
system.membus.pkt_count_system.cpu_cluster.cpus.dcache.mem_side::total        72017                       # Packet count per connected master and slave (bytes)
system.membus.pkt_count::total                 440722                       # Packet count per connected master and slave (bytes)
system.membus.pkt_size_system.cpu_cluster.cpus.icache.mem_side::system.mem_ctrls.port      7876608                       # Cumulative packet size per connected master and slave (bytes)
system.membus.pkt_size_system.cpu_cluster.cpus.icache.mem_side::total      7876608                       # Cumulative packet size per connected master and slave (bytes)
system.membus.pkt_size_system.cpu_cluster.cpus.dcache.mem_side::system.mem_ctrls.port      2434752                       # Cumulative packet size per connected master and slave (bytes)
system.membus.pkt_size_system.cpu_cluster.cpus.dcache.mem_side::total      2434752                       # Cumulative packet size per connected master and slave (bytes)
system.membus.pkt_size::total                10311360                       # Cumulative packet size per connected master and slave (bytes)
system.membus.snoops                                0                       # Total snoops (count)
system.membus.snoopTraffic                          0                       # Total snoop traffic (bytes)
system.membus.snoop_fanout::samples            147254                       # Request fanout histogram
system.membus.snoop_fanout::mean             0.000014                       # Request fanout histogram
system.membus.snoop_fanout::stdev            0.003685                       # Request fanout histogram
system.membus.snoop_fanout::underflows              0      0.00%      0.00% # Request fanout histogram
system.membus.snoop_fanout::0                  147252    100.00%    100.00% # Request fanout histogram
system.membus.snoop_fanout::1                       2      0.00%    100.00% # Request fanout histogram
system.membus.snoop_fanout::2                       0      0.00%    100.00% # Request fanout histogram
system.membus.snoop_fanout::overflows               0      0.00%    100.00% # Request fanout histogram
system.membus.snoop_fanout::min_value               0                       # Request fanout histogram
system.membus.snoop_fanout::max_value               1                       # Request fanout histogram
system.membus.snoop_fanout::total              147254                       # Request fanout histogram
system.membus.reqLayer0.occupancy           469886722                       # Layer occupancy (ticks)
system.membus.reqLayer0.utilization               0.1                       # Layer utilization (%)
system.membus.badaddr_responder.pwrStateResidencyTicks::UNDEFINED 482829435585                       # Cumulative time (in ticks) in various power states
system.membus.respLayer1.occupancy          616983039                       # Layer occupancy (ticks)
system.membus.respLayer1.utilization              0.1                       # Layer utilization (%)
system.membus.respLayer2.occupancy          122803183                       # Layer occupancy (ticks)
system.membus.respLayer2.utilization              0.0                       # Layer utilization (%)
system.voltage_domain.voltage                       1                       # Voltage in Volts
system.clk_domain.clock                          1000                       # Clock period in ticks
system.cpu_cluster.voltage_domain.voltage            1                       # Voltage in Volts
system.cpu_cluster.clk_domain.clock               357                       # Clock period in ticks
system.cpu_cluster.cpus.pwrStateResidencyTicks::ON 482829435585                       # Cumulative time (in ticks) in various power states
system.cpu_cluster.cpus.icache.pwrStateResidencyTicks::UNDEFINED 482829435585                       # Cumulative time (in ticks) in various power states
system.cpu_cluster.cpus.icache.demand_hits::.cpu_cluster.cpus.inst    176430496                       # number of demand (read+write) hits
system.cpu_cluster.cpus.icache.demand_hits::total    176430496                       # number of demand (read+write) hits
system.cpu_cluster.cpus.icache.overall_hits::.cpu_cluster.cpus.inst    176430496                       # number of overall hits
system.cpu_cluster.cpus.icache.overall_hits::total    176430496                       # number of overall hits
system.cpu_cluster.cpus.icache.demand_misses::.cpu_cluster.cpus.inst       123073                       # number of demand (read+write) misses
system.cpu_cluster.cpus.icache.demand_misses::total       123073                       # number of demand (read+write) misses
system.cpu_cluster.cpus.icache.overall_misses::.cpu_cluster.cpus.inst       123073                       # number of overall misses
system.cpu_cluster.cpus.icache.overall_misses::total       123073                       # number of overall misses
system.cpu_cluster.cpus.icache.demand_miss_latency::.cpu_cluster.cpus.inst   8428082775                       # number of demand (read+write) miss cycles
system.cpu_cluster.cpus.icache.demand_miss_latency::total   8428082775                       # number of demand (read+write) miss cycles
system.cpu_cluster.cpus.icache.overall_miss_latency::.cpu_cluster.cpus.inst   8428082775                       # number of overall miss cycles
system.cpu_cluster.cpus.icache.overall_miss_latency::total   8428082775                       # number of overall miss cycles
system.cpu_cluster.cpus.icache.demand_accesses::.cpu_cluster.cpus.inst    176553569                       # number of demand (read+write) accesses
system.cpu_cluster.cpus.icache.demand_accesses::total    176553569                       # number of demand (read+write) accesses
system.cpu_cluster.cpus.icache.overall_accesses::.cpu_cluster.cpus.inst    176553569                       # number of overall (read+write) accesses
system.cpu_cluster.cpus.icache.overall_accesses::total    176553569                       # number of overall (read+write) accesses
system.cpu_cluster.cpus.icache.demand_miss_rate::.cpu_cluster.cpus.inst     0.000697                       # miss rate for demand accesses
system.cpu_cluster.cpus.icache.demand_miss_rate::total     0.000697                       # miss rate for demand accesses
system.cpu_cluster.cpus.icache.overall_miss_rate::.cpu_cluster.cpus.inst     0.000697                       # miss rate for overall accesses
system.cpu_cluster.cpus.icache.overall_miss_rate::total     0.000697                       # miss rate for overall accesses
system.cpu_cluster.cpus.icache.demand_avg_miss_latency::.cpu_cluster.cpus.inst 68480.355358                       # average overall miss latency
system.cpu_cluster.cpus.icache.demand_avg_miss_latency::total 68480.355358                       # average overall miss latency
system.cpu_cluster.cpus.icache.overall_avg_miss_latency::.cpu_cluster.cpus.inst 68480.355358                       # average overall miss latency
system.cpu_cluster.cpus.icache.overall_avg_miss_latency::total 68480.355358                       # average overall miss latency
system.cpu_cluster.cpus.icache.blocked_cycles::no_mshrs            0                       # number of cycles access was blocked
system.cpu_cluster.cpus.icache.blocked_cycles::no_targets            0                       # number of cycles access was blocked
system.cpu_cluster.cpus.icache.blocked::no_mshrs            0                       # number of cycles access was blocked
system.cpu_cluster.cpus.icache.blocked::no_targets            0                       # number of cycles access was blocked
system.cpu_cluster.cpus.icache.avg_blocked_cycles::no_mshrs          nan                       # average number of cycles each access was blocked
system.cpu_cluster.cpus.icache.avg_blocked_cycles::no_targets          nan                       # average number of cycles each access was blocked
system.cpu_cluster.cpus.icache.demand_mshr_misses::.cpu_cluster.cpus.inst       123073                       # number of demand (read+write) MSHR misses
system.cpu_cluster.cpus.icache.demand_mshr_misses::total       123073                       # number of demand (read+write) MSHR misses
system.cpu_cluster.cpus.icache.overall_mshr_misses::.cpu_cluster.cpus.inst       123073                       # number of overall MSHR misses
system.cpu_cluster.cpus.icache.overall_mshr_misses::total       123073                       # number of overall MSHR misses
system.cpu_cluster.cpus.icache.demand_mshr_miss_latency::.cpu_cluster.cpus.inst   8318126529                       # number of demand (read+write) MSHR miss cycles
system.cpu_cluster.cpus.icache.demand_mshr_miss_latency::total   8318126529                       # number of demand (read+write) MSHR miss cycles
system.cpu_cluster.cpus.icache.overall_mshr_miss_latency::.cpu_cluster.cpus.inst   8318126529                       # number of overall MSHR miss cycles
system.cpu_cluster.cpus.icache.overall_mshr_miss_latency::total   8318126529                       # number of overall MSHR miss cycles
system.cpu_cluster.cpus.icache.demand_mshr_miss_rate::.cpu_cluster.cpus.inst     0.000697                       # mshr miss rate for demand accesses
system.cpu_cluster.cpus.icache.demand_mshr_miss_rate::total     0.000697                       # mshr miss rate for demand accesses
system.cpu_cluster.cpus.icache.overall_mshr_miss_rate::.cpu_cluster.cpus.inst     0.000697                       # mshr miss rate for overall accesses
system.cpu_cluster.cpus.icache.overall_mshr_miss_rate::total     0.000697                       # mshr miss rate for overall accesses
system.cpu_cluster.cpus.icache.demand_avg_mshr_miss_latency::.cpu_cluster.cpus.inst 67586.932382                       # average overall mshr miss latency
system.cpu_cluster.cpus.icache.demand_avg_mshr_miss_latency::total 67586.932382                       # average overall mshr miss latency
system.cpu_cluster.cpus.icache.overall_avg_mshr_miss_latency::.cpu_cluster.cpus.inst 67586.932382                       # average overall mshr miss latency
system.cpu_cluster.cpus.icache.overall_avg_mshr_miss_latency::total 67586.932382                       # average overall mshr miss latency
system.cpu_cluster.cpus.icache.replacements       122560                       # number of replacements
system.cpu_cluster.cpus.icache.ReadReq_hits::.cpu_cluster.cpus.inst    176430496                       # number of ReadReq hits
system.cpu_cluster.cpus.icache.ReadReq_hits::total    176430496                       # number of ReadReq hits
system.cpu_cluster.cpus.icache.ReadReq_misses::.cpu_cluster.cpus.inst       123073                       # number of ReadReq misses
system.cpu_cluster.cpus.icache.ReadReq_misses::total       123073                       # number of ReadReq misses
system.cpu_cluster.cpus.icache.ReadReq_miss_latency::.cpu_cluster.cpus.inst   8428082775                       # number of ReadReq miss cycles
system.cpu_cluster.cpus.icache.ReadReq_miss_latency::total   8428082775                       # number of ReadReq miss cycles
system.cpu_cluster.cpus.icache.ReadReq_accesses::.cpu_cluster.cpus.inst    176553569                       # number of ReadReq accesses(hits+misses)
system.cpu_cluster.cpus.icache.ReadReq_accesses::total    176553569                       # number of ReadReq accesses(hits+misses)
system.cpu_cluster.cpus.icache.ReadReq_miss_rate::.cpu_cluster.cpus.inst     0.000697                       # miss rate for ReadReq accesses
system.cpu_cluster.cpus.icache.ReadReq_miss_rate::total     0.000697                       # miss rate for ReadReq accesses
system.cpu_cluster.cpus.icache.ReadReq_avg_miss_latency::.cpu_cluster.cpus.inst 68480.355358                       # average ReadReq miss latency
system.cpu_cluster.cpus.icache.ReadReq_avg_miss_latency::total 68480.355358                       # average ReadReq miss latency
system.cpu_cluster.cpus.icache.ReadReq_mshr_misses::.cpu_cluster.cpus.inst       123073                       # number of ReadReq MSHR misses
system.cpu_cluster.cpus.icache.ReadReq_mshr_misses::total       123073                       # number of ReadReq MSHR misses
system.cpu_cluster.cpus.icache.ReadReq_mshr_miss_latency::.cpu_cluster.cpus.inst   8318126529                       # number of ReadReq MSHR miss cycles
system.cpu_cluster.cpus.icache.ReadReq_mshr_miss_latency::total   8318126529                       # number of ReadReq MSHR miss cycles
system.cpu_cluster.cpus.icache.ReadReq_mshr_miss_rate::.cpu_cluster.cpus.inst     0.000697                       # mshr miss rate for ReadReq accesses
system.cpu_cluster.cpus.icache.ReadReq_mshr_miss_rate::total     0.000697                       # mshr miss rate for ReadReq accesses
system.cpu_cluster.cpus.icache.ReadReq_avg_mshr_miss_latency::.cpu_cluster.cpus.inst 67586.932382                       # average ReadReq mshr miss latency
system.cpu_cluster.cpus.icache.ReadReq_avg_mshr_miss_latency::total 67586.932382                       # average ReadReq mshr miss latency
system.cpu_cluster.cpus.icache.tags.pwrStateResidencyTicks::UNDEFINED 482829435585                       # Cumulative time (in ticks) in various power states
system.cpu_cluster.cpus.icache.tags.tagsinuse   509.933172                       # Cycle average of tags in use
system.cpu_cluster.cpus.icache.tags.total_refs    176553568                       # Total number of references to valid blocks.
system.cpu_cluster.cpus.icache.tags.sampled_refs       123072                       # Sample count of references to valid blocks.
system.cpu_cluster.cpus.icache.tags.avg_refs  1434.555122                       # Average number of references to valid blocks.
system.cpu_cluster.cpus.icache.tags.warmup_cycle        92000                       # Cycle when the warmup percentage was hit.
system.cpu_cluster.cpus.icache.tags.occ_blocks::.cpu_cluster.cpus.inst   509.933172                       # Average occupied blocks per requestor
system.cpu_cluster.cpus.icache.tags.occ_percent::.cpu_cluster.cpus.inst     0.995963                       # Average percentage of cache occupancy
system.cpu_cluster.cpus.icache.tags.occ_percent::total     0.995963                       # Average percentage of cache occupancy
system.cpu_cluster.cpus.icache.tags.occ_task_id_blocks::1024          512                       # Occupied blocks per task id
system.cpu_cluster.cpus.icache.tags.age_task_id_blocks_1024::0           95                       # Occupied blocks per task id
system.cpu_cluster.cpus.icache.tags.age_task_id_blocks_1024::1          260                       # Occupied blocks per task id
system.cpu_cluster.cpus.icache.tags.age_task_id_blocks_1024::2            7                       # Occupied blocks per task id
system.cpu_cluster.cpus.icache.tags.age_task_id_blocks_1024::3           42                       # Occupied blocks per task id
system.cpu_cluster.cpus.icache.tags.age_task_id_blocks_1024::4          108                       # Occupied blocks per task id
system.cpu_cluster.cpus.icache.tags.occ_task_id_percent::1024            1                       # Percentage of cache occupancy per task id
system.cpu_cluster.cpus.icache.tags.tag_accesses    353230210                       # Number of tag accesses
system.cpu_cluster.cpus.icache.tags.data_accesses    353230210                       # Number of data accesses
system.cpu_cluster.cpus.dtb.walker.pwrStateResidencyTicks::UNDEFINED 482829435585                       # Cumulative time (in ticks) in various power states
system.cpu_cluster.cpus.dtb.stage2_mmu.stage2_tlb.walker.pwrStateResidencyTicks::UNDEFINED 482829435585                       # Cumulative time (in ticks) in various power states
system.cpu_cluster.cpus.dcache.pwrStateResidencyTicks::UNDEFINED 482829435585                       # Cumulative time (in ticks) in various power states
system.cpu_cluster.cpus.dcache.demand_hits::.cpu_cluster.cpus.data    458918012                       # number of demand (read+write) hits
system.cpu_cluster.cpus.dcache.demand_hits::total    458918012                       # number of demand (read+write) hits
system.cpu_cluster.cpus.dcache.overall_hits::.cpu_cluster.cpus.data    458918012                       # number of overall hits
system.cpu_cluster.cpus.dcache.overall_hits::total    458918012                       # number of overall hits
system.cpu_cluster.cpus.dcache.demand_misses::.cpu_cluster.cpus.data        29011                       # number of demand (read+write) misses
system.cpu_cluster.cpus.dcache.demand_misses::total        29011                       # number of demand (read+write) misses
system.cpu_cluster.cpus.dcache.overall_misses::.cpu_cluster.cpus.data        29011                       # number of overall misses
system.cpu_cluster.cpus.dcache.overall_misses::total        29011                       # number of overall misses
system.cpu_cluster.cpus.dcache.demand_miss_latency::.cpu_cluster.cpus.data   2134568846                       # number of demand (read+write) miss cycles
system.cpu_cluster.cpus.dcache.demand_miss_latency::total   2134568846                       # number of demand (read+write) miss cycles
system.cpu_cluster.cpus.dcache.overall_miss_latency::.cpu_cluster.cpus.data   2134568846                       # number of overall miss cycles
system.cpu_cluster.cpus.dcache.overall_miss_latency::total   2134568846                       # number of overall miss cycles
system.cpu_cluster.cpus.dcache.demand_accesses::.cpu_cluster.cpus.data    458947023                       # number of demand (read+write) accesses
system.cpu_cluster.cpus.dcache.demand_accesses::total    458947023                       # number of demand (read+write) accesses
system.cpu_cluster.cpus.dcache.overall_accesses::.cpu_cluster.cpus.data    458947023                       # number of overall (read+write) accesses
system.cpu_cluster.cpus.dcache.overall_accesses::total    458947023                       # number of overall (read+write) accesses
system.cpu_cluster.cpus.dcache.demand_miss_rate::.cpu_cluster.cpus.data     0.000063                       # miss rate for demand accesses
system.cpu_cluster.cpus.dcache.demand_miss_rate::total     0.000063                       # miss rate for demand accesses
system.cpu_cluster.cpus.dcache.overall_miss_rate::.cpu_cluster.cpus.data     0.000063                       # miss rate for overall accesses
system.cpu_cluster.cpus.dcache.overall_miss_rate::total     0.000063                       # miss rate for overall accesses
system.cpu_cluster.cpus.dcache.demand_avg_miss_latency::.cpu_cluster.cpus.data 73577.913412                       # average overall miss latency
system.cpu_cluster.cpus.dcache.demand_avg_miss_latency::total 73577.913412                       # average overall miss latency
system.cpu_cluster.cpus.dcache.overall_avg_miss_latency::.cpu_cluster.cpus.data 73577.913412                       # average overall miss latency
system.cpu_cluster.cpus.dcache.overall_avg_miss_latency::total 73577.913412                       # average overall miss latency
system.cpu_cluster.cpus.dcache.blocked_cycles::no_mshrs            0                       # number of cycles access was blocked
system.cpu_cluster.cpus.dcache.blocked_cycles::no_targets            0                       # number of cycles access was blocked
system.cpu_cluster.cpus.dcache.blocked::no_mshrs            0                       # number of cycles access was blocked
system.cpu_cluster.cpus.dcache.blocked::no_targets            0                       # number of cycles access was blocked
system.cpu_cluster.cpus.dcache.avg_blocked_cycles::no_mshrs          nan                       # average number of cycles each access was blocked
system.cpu_cluster.cpus.dcache.avg_blocked_cycles::no_targets          nan                       # average number of cycles each access was blocked
system.cpu_cluster.cpus.dcache.writebacks::.writebacks        13876                       # number of writebacks
system.cpu_cluster.cpus.dcache.writebacks::total        13876                       # number of writebacks
system.cpu_cluster.cpus.dcache.demand_mshr_hits::.cpu_cluster.cpus.data         4834                       # number of demand (read+write) MSHR hits
system.cpu_cluster.cpus.dcache.demand_mshr_hits::total         4834                       # number of demand (read+write) MSHR hits
system.cpu_cluster.cpus.dcache.overall_mshr_hits::.cpu_cluster.cpus.data         4834                       # number of overall MSHR hits
system.cpu_cluster.cpus.dcache.overall_mshr_hits::total         4834                       # number of overall MSHR hits
system.cpu_cluster.cpus.dcache.demand_mshr_misses::.cpu_cluster.cpus.data        24177                       # number of demand (read+write) MSHR misses
system.cpu_cluster.cpus.dcache.demand_mshr_misses::total        24177                       # number of demand (read+write) MSHR misses
system.cpu_cluster.cpus.dcache.overall_mshr_misses::.cpu_cluster.cpus.data        24177                       # number of overall MSHR misses
system.cpu_cluster.cpus.dcache.overall_mshr_misses::total        24177                       # number of overall MSHR misses
system.cpu_cluster.cpus.dcache.demand_mshr_miss_latency::.cpu_cluster.cpus.data   1832617106                       # number of demand (read+write) MSHR miss cycles
system.cpu_cluster.cpus.dcache.demand_mshr_miss_latency::total   1832617106                       # number of demand (read+write) MSHR miss cycles
system.cpu_cluster.cpus.dcache.overall_mshr_miss_latency::.cpu_cluster.cpus.data   1832617106                       # number of overall MSHR miss cycles
system.cpu_cluster.cpus.dcache.overall_mshr_miss_latency::total   1832617106                       # number of overall MSHR miss cycles
system.cpu_cluster.cpus.dcache.demand_mshr_miss_rate::.cpu_cluster.cpus.data     0.000053                       # mshr miss rate for demand accesses
system.cpu_cluster.cpus.dcache.demand_mshr_miss_rate::total     0.000053                       # mshr miss rate for demand accesses
system.cpu_cluster.cpus.dcache.overall_mshr_miss_rate::.cpu_cluster.cpus.data     0.000053                       # mshr miss rate for overall accesses
system.cpu_cluster.cpus.dcache.overall_mshr_miss_rate::total     0.000053                       # mshr miss rate for overall accesses
system.cpu_cluster.cpus.dcache.demand_avg_mshr_miss_latency::.cpu_cluster.cpus.data 75800.020929                       # average overall mshr miss latency
system.cpu_cluster.cpus.dcache.demand_avg_mshr_miss_latency::total 75800.020929                       # average overall mshr miss latency
system.cpu_cluster.cpus.dcache.overall_avg_mshr_miss_latency::.cpu_cluster.cpus.data 75800.020929                       # average overall mshr miss latency
system.cpu_cluster.cpus.dcache.overall_avg_mshr_miss_latency::total 75800.020929                       # average overall mshr miss latency
system.cpu_cluster.cpus.dcache.replacements        23669                       # number of replacements
system.cpu_cluster.cpus.dcache.ReadReq_hits::.cpu_cluster.cpus.data    291260836                       # number of ReadReq hits
system.cpu_cluster.cpus.dcache.ReadReq_hits::total    291260836                       # number of ReadReq hits
system.cpu_cluster.cpus.dcache.ReadReq_misses::.cpu_cluster.cpus.data        14609                       # number of ReadReq misses
system.cpu_cluster.cpus.dcache.ReadReq_misses::total        14609                       # number of ReadReq misses
system.cpu_cluster.cpus.dcache.ReadReq_miss_latency::.cpu_cluster.cpus.data   1110831210                       # number of ReadReq miss cycles
system.cpu_cluster.cpus.dcache.ReadReq_miss_latency::total   1110831210                       # number of ReadReq miss cycles
system.cpu_cluster.cpus.dcache.ReadReq_accesses::.cpu_cluster.cpus.data    291275445                       # number of ReadReq accesses(hits+misses)
system.cpu_cluster.cpus.dcache.ReadReq_accesses::total    291275445                       # number of ReadReq accesses(hits+misses)
system.cpu_cluster.cpus.dcache.ReadReq_miss_rate::.cpu_cluster.cpus.data     0.000050                       # miss rate for ReadReq accesses
system.cpu_cluster.cpus.dcache.ReadReq_miss_rate::total     0.000050                       # miss rate for ReadReq accesses
system.cpu_cluster.cpus.dcache.ReadReq_avg_miss_latency::.cpu_cluster.cpus.data 76037.457047                       # average ReadReq miss latency
system.cpu_cluster.cpus.dcache.ReadReq_avg_miss_latency::total 76037.457047                       # average ReadReq miss latency
system.cpu_cluster.cpus.dcache.ReadReq_mshr_hits::.cpu_cluster.cpus.data           93                       # number of ReadReq MSHR hits
system.cpu_cluster.cpus.dcache.ReadReq_mshr_hits::total           93                       # number of ReadReq MSHR hits
system.cpu_cluster.cpus.dcache.ReadReq_mshr_misses::.cpu_cluster.cpus.data        14516                       # number of ReadReq MSHR misses
system.cpu_cluster.cpus.dcache.ReadReq_mshr_misses::total        14516                       # number of ReadReq MSHR misses
system.cpu_cluster.cpus.dcache.ReadReq_mshr_miss_latency::.cpu_cluster.cpus.data   1093900528                       # number of ReadReq MSHR miss cycles
system.cpu_cluster.cpus.dcache.ReadReq_mshr_miss_latency::total   1093900528                       # number of ReadReq MSHR miss cycles
system.cpu_cluster.cpus.dcache.ReadReq_mshr_miss_rate::.cpu_cluster.cpus.data     0.000050                       # mshr miss rate for ReadReq accesses
system.cpu_cluster.cpus.dcache.ReadReq_mshr_miss_rate::total     0.000050                       # mshr miss rate for ReadReq accesses
system.cpu_cluster.cpus.dcache.ReadReq_avg_mshr_miss_latency::.cpu_cluster.cpus.data 75358.261780                       # average ReadReq mshr miss latency
system.cpu_cluster.cpus.dcache.ReadReq_avg_mshr_miss_latency::total 75358.261780                       # average ReadReq mshr miss latency
system.cpu_cluster.cpus.dcache.WriteReq_hits::.cpu_cluster.cpus.data    167657175                       # number of WriteReq hits
system.cpu_cluster.cpus.dcache.WriteReq_hits::total    167657175                       # number of WriteReq hits
system.cpu_cluster.cpus.dcache.WriteReq_misses::.cpu_cluster.cpus.data        14388                       # number of WriteReq misses
system.cpu_cluster.cpus.dcache.WriteReq_misses::total        14388                       # number of WriteReq misses
system.cpu_cluster.cpus.dcache.WriteReq_miss_latency::.cpu_cluster.cpus.data   1023588410                       # number of WriteReq miss cycles
system.cpu_cluster.cpus.dcache.WriteReq_miss_latency::total   1023588410                       # number of WriteReq miss cycles
system.cpu_cluster.cpus.dcache.WriteReq_accesses::.cpu_cluster.cpus.data    167671563                       # number of WriteReq accesses(hits+misses)
system.cpu_cluster.cpus.dcache.WriteReq_accesses::total    167671563                       # number of WriteReq accesses(hits+misses)
system.cpu_cluster.cpus.dcache.WriteReq_miss_rate::.cpu_cluster.cpus.data     0.000086                       # miss rate for WriteReq accesses
system.cpu_cluster.cpus.dcache.WriteReq_miss_rate::total     0.000086                       # miss rate for WriteReq accesses
system.cpu_cluster.cpus.dcache.WriteReq_avg_miss_latency::.cpu_cluster.cpus.data 71141.813317                       # average WriteReq miss latency
system.cpu_cluster.cpus.dcache.WriteReq_avg_miss_latency::total 71141.813317                       # average WriteReq miss latency
system.cpu_cluster.cpus.dcache.WriteReq_mshr_hits::.cpu_cluster.cpus.data         4741                       # number of WriteReq MSHR hits
system.cpu_cluster.cpus.dcache.WriteReq_mshr_hits::total         4741                       # number of WriteReq MSHR hits
system.cpu_cluster.cpus.dcache.WriteReq_mshr_misses::.cpu_cluster.cpus.data         9647                       # number of WriteReq MSHR misses
system.cpu_cluster.cpus.dcache.WriteReq_mshr_misses::total         9647                       # number of WriteReq MSHR misses
system.cpu_cluster.cpus.dcache.WriteReq_mshr_miss_latency::.cpu_cluster.cpus.data    738580138                       # number of WriteReq MSHR miss cycles
system.cpu_cluster.cpus.dcache.WriteReq_mshr_miss_latency::total    738580138                       # number of WriteReq MSHR miss cycles
system.cpu_cluster.cpus.dcache.WriteReq_mshr_miss_rate::.cpu_cluster.cpus.data     0.000058                       # mshr miss rate for WriteReq accesses
system.cpu_cluster.cpus.dcache.WriteReq_mshr_miss_rate::total     0.000058                       # mshr miss rate for WriteReq accesses
system.cpu_cluster.cpus.dcache.WriteReq_avg_mshr_miss_latency::.cpu_cluster.cpus.data 76560.603089                       # average WriteReq mshr miss latency
system.cpu_cluster.cpus.dcache.WriteReq_avg_mshr_miss_latency::total 76560.603089                       # average WriteReq mshr miss latency
system.cpu_cluster.cpus.dcache.WriteLineReq_hits::.cpu_cluster.cpus.data            1                       # number of WriteLineReq hits
system.cpu_cluster.cpus.dcache.WriteLineReq_hits::total            1                       # number of WriteLineReq hits
system.cpu_cluster.cpus.dcache.WriteLineReq_misses::.cpu_cluster.cpus.data           14                       # number of WriteLineReq misses
system.cpu_cluster.cpus.dcache.WriteLineReq_misses::total           14                       # number of WriteLineReq misses
system.cpu_cluster.cpus.dcache.WriteLineReq_miss_latency::.cpu_cluster.cpus.data       149226                       # number of WriteLineReq miss cycles
system.cpu_cluster.cpus.dcache.WriteLineReq_miss_latency::total       149226                       # number of WriteLineReq miss cycles
system.cpu_cluster.cpus.dcache.WriteLineReq_accesses::.cpu_cluster.cpus.data           15                       # number of WriteLineReq accesses(hits+misses)
system.cpu_cluster.cpus.dcache.WriteLineReq_accesses::total           15                       # number of WriteLineReq accesses(hits+misses)
system.cpu_cluster.cpus.dcache.WriteLineReq_miss_rate::.cpu_cluster.cpus.data     0.933333                       # miss rate for WriteLineReq accesses
system.cpu_cluster.cpus.dcache.WriteLineReq_miss_rate::total     0.933333                       # miss rate for WriteLineReq accesses
system.cpu_cluster.cpus.dcache.WriteLineReq_avg_miss_latency::.cpu_cluster.cpus.data        10659                       # average WriteLineReq miss latency
system.cpu_cluster.cpus.dcache.WriteLineReq_avg_miss_latency::total        10659                       # average WriteLineReq miss latency
system.cpu_cluster.cpus.dcache.WriteLineReq_mshr_misses::.cpu_cluster.cpus.data           14                       # number of WriteLineReq MSHR misses
system.cpu_cluster.cpus.dcache.WriteLineReq_mshr_misses::total           14                       # number of WriteLineReq MSHR misses
system.cpu_cluster.cpus.dcache.WriteLineReq_mshr_miss_latency::.cpu_cluster.cpus.data       136440                       # number of WriteLineReq MSHR miss cycles
system.cpu_cluster.cpus.dcache.WriteLineReq_mshr_miss_latency::total       136440                       # number of WriteLineReq MSHR miss cycles
system.cpu_cluster.cpus.dcache.WriteLineReq_mshr_miss_rate::.cpu_cluster.cpus.data     0.933333                       # mshr miss rate for WriteLineReq accesses
system.cpu_cluster.cpus.dcache.WriteLineReq_mshr_miss_rate::total     0.933333                       # mshr miss rate for WriteLineReq accesses
system.cpu_cluster.cpus.dcache.WriteLineReq_avg_mshr_miss_latency::.cpu_cluster.cpus.data  9745.714286                       # average WriteLineReq mshr miss latency
system.cpu_cluster.cpus.dcache.WriteLineReq_avg_mshr_miss_latency::total  9745.714286                       # average WriteLineReq mshr miss latency
system.cpu_cluster.cpus.dcache.LoadLockedReq_hits::.cpu_cluster.cpus.data           23                       # number of LoadLockedReq hits
system.cpu_cluster.cpus.dcache.LoadLockedReq_hits::total           23                       # number of LoadLockedReq hits
system.cpu_cluster.cpus.dcache.LoadLockedReq_misses::.cpu_cluster.cpus.data            1                       # number of LoadLockedReq misses
system.cpu_cluster.cpus.dcache.LoadLockedReq_misses::total            1                       # number of LoadLockedReq misses
system.cpu_cluster.cpus.dcache.LoadLockedReq_miss_latency::.cpu_cluster.cpus.data        93177                       # number of LoadLockedReq miss cycles
system.cpu_cluster.cpus.dcache.LoadLockedReq_miss_latency::total        93177                       # number of LoadLockedReq miss cycles
system.cpu_cluster.cpus.dcache.LoadLockedReq_accesses::.cpu_cluster.cpus.data           24                       # number of LoadLockedReq accesses(hits+misses)
system.cpu_cluster.cpus.dcache.LoadLockedReq_accesses::total           24                       # number of LoadLockedReq accesses(hits+misses)
system.cpu_cluster.cpus.dcache.LoadLockedReq_miss_rate::.cpu_cluster.cpus.data     0.041667                       # miss rate for LoadLockedReq accesses
system.cpu_cluster.cpus.dcache.LoadLockedReq_miss_rate::total     0.041667                       # miss rate for LoadLockedReq accesses
system.cpu_cluster.cpus.dcache.LoadLockedReq_avg_miss_latency::.cpu_cluster.cpus.data        93177                       # average LoadLockedReq miss latency
system.cpu_cluster.cpus.dcache.LoadLockedReq_avg_miss_latency::total        93177                       # average LoadLockedReq miss latency
system.cpu_cluster.cpus.dcache.LoadLockedReq_mshr_misses::.cpu_cluster.cpus.data            1                       # number of LoadLockedReq MSHR misses
system.cpu_cluster.cpus.dcache.LoadLockedReq_mshr_misses::total            1                       # number of LoadLockedReq MSHR misses
system.cpu_cluster.cpus.dcache.LoadLockedReq_mshr_miss_latency::.cpu_cluster.cpus.data        92150                       # number of LoadLockedReq MSHR miss cycles
system.cpu_cluster.cpus.dcache.LoadLockedReq_mshr_miss_latency::total        92150                       # number of LoadLockedReq MSHR miss cycles
system.cpu_cluster.cpus.dcache.LoadLockedReq_mshr_miss_rate::.cpu_cluster.cpus.data     0.041667                       # mshr miss rate for LoadLockedReq accesses
system.cpu_cluster.cpus.dcache.LoadLockedReq_mshr_miss_rate::total     0.041667                       # mshr miss rate for LoadLockedReq accesses
system.cpu_cluster.cpus.dcache.LoadLockedReq_avg_mshr_miss_latency::.cpu_cluster.cpus.data        92150                       # average LoadLockedReq mshr miss latency
system.cpu_cluster.cpus.dcache.LoadLockedReq_avg_mshr_miss_latency::total        92150                       # average LoadLockedReq mshr miss latency
system.cpu_cluster.cpus.dcache.StoreCondReq_hits::.cpu_cluster.cpus.data           24                       # number of StoreCondReq hits
system.cpu_cluster.cpus.dcache.StoreCondReq_hits::total           24                       # number of StoreCondReq hits
system.cpu_cluster.cpus.dcache.StoreCondReq_accesses::.cpu_cluster.cpus.data           24                       # number of StoreCondReq accesses(hits+misses)
system.cpu_cluster.cpus.dcache.StoreCondReq_accesses::total           24                       # number of StoreCondReq accesses(hits+misses)
system.cpu_cluster.cpus.dcache.SwapReq_hits::.cpu_cluster.cpus.data          219                       # number of SwapReq hits
system.cpu_cluster.cpus.dcache.SwapReq_hits::total          219                       # number of SwapReq hits
system.cpu_cluster.cpus.dcache.SwapReq_misses::.cpu_cluster.cpus.data            3                       # number of SwapReq misses
system.cpu_cluster.cpus.dcache.SwapReq_misses::total            3                       # number of SwapReq misses
system.cpu_cluster.cpus.dcache.SwapReq_miss_latency::.cpu_cluster.cpus.data       260967                       # number of SwapReq miss cycles
system.cpu_cluster.cpus.dcache.SwapReq_miss_latency::total       260967                       # number of SwapReq miss cycles
system.cpu_cluster.cpus.dcache.SwapReq_accesses::.cpu_cluster.cpus.data          222                       # number of SwapReq accesses(hits+misses)
system.cpu_cluster.cpus.dcache.SwapReq_accesses::total          222                       # number of SwapReq accesses(hits+misses)
system.cpu_cluster.cpus.dcache.SwapReq_miss_rate::.cpu_cluster.cpus.data     0.013514                       # miss rate for SwapReq accesses
system.cpu_cluster.cpus.dcache.SwapReq_miss_rate::total     0.013514                       # miss rate for SwapReq accesses
system.cpu_cluster.cpus.dcache.SwapReq_avg_miss_latency::.cpu_cluster.cpus.data        86989                       # average SwapReq miss latency
system.cpu_cluster.cpus.dcache.SwapReq_avg_miss_latency::total        86989                       # average SwapReq miss latency
system.cpu_cluster.cpus.dcache.SwapReq_mshr_misses::.cpu_cluster.cpus.data            3                       # number of SwapReq MSHR misses
system.cpu_cluster.cpus.dcache.SwapReq_mshr_misses::total            3                       # number of SwapReq MSHR misses
system.cpu_cluster.cpus.dcache.SwapReq_mshr_miss_latency::.cpu_cluster.cpus.data       258403                       # number of SwapReq MSHR miss cycles
system.cpu_cluster.cpus.dcache.SwapReq_mshr_miss_latency::total       258403                       # number of SwapReq MSHR miss cycles
system.cpu_cluster.cpus.dcache.SwapReq_mshr_miss_rate::.cpu_cluster.cpus.data     0.013514                       # mshr miss rate for SwapReq accesses
system.cpu_cluster.cpus.dcache.SwapReq_mshr_miss_rate::total     0.013514                       # mshr miss rate for SwapReq accesses
system.cpu_cluster.cpus.dcache.SwapReq_avg_mshr_miss_latency::.cpu_cluster.cpus.data 86134.333333                       # average SwapReq mshr miss latency
system.cpu_cluster.cpus.dcache.SwapReq_avg_mshr_miss_latency::total 86134.333333                       # average SwapReq mshr miss latency
system.cpu_cluster.cpus.dcache.tags.pwrStateResidencyTicks::UNDEFINED 482829435585                       # Cumulative time (in ticks) in various power states
system.cpu_cluster.cpus.dcache.tags.tagsinuse   511.933048                       # Cycle average of tags in use
system.cpu_cluster.cpus.dcache.tags.total_refs    458942459                       # Total number of references to valid blocks.
system.cpu_cluster.cpus.dcache.tags.sampled_refs        24181                       # Sample count of references to valid blocks.
system.cpu_cluster.cpus.dcache.tags.avg_refs 18979.465655                       # Average number of references to valid blocks.
system.cpu_cluster.cpus.dcache.tags.warmup_cycle       170000                       # Cycle when the warmup percentage was hit.
system.cpu_cluster.cpus.dcache.tags.occ_blocks::.cpu_cluster.cpus.data   511.933048                       # Average occupied blocks per requestor
system.cpu_cluster.cpus.dcache.tags.occ_percent::.cpu_cluster.cpus.data     0.999869                       # Average percentage of cache occupancy
system.cpu_cluster.cpus.dcache.tags.occ_percent::total     0.999869                       # Average percentage of cache occupancy
system.cpu_cluster.cpus.dcache.tags.occ_task_id_blocks::1024          512                       # Occupied blocks per task id
system.cpu_cluster.cpus.dcache.tags.age_task_id_blocks_1024::0           49                       # Occupied blocks per task id
system.cpu_cluster.cpus.dcache.tags.age_task_id_blocks_1024::1          452                       # Occupied blocks per task id
system.cpu_cluster.cpus.dcache.tags.age_task_id_blocks_1024::2           11                       # Occupied blocks per task id
system.cpu_cluster.cpus.dcache.tags.occ_task_id_percent::1024            1                       # Percentage of cache occupancy per task id
system.cpu_cluster.cpus.dcache.tags.tag_accesses   1835813353                       # Number of tag accesses
system.cpu_cluster.cpus.dcache.tags.data_accesses   1835813353                       # Number of data accesses
system.cpu_cluster.cpus.itb.walker.pwrStateResidencyTicks::UNDEFINED 482829435585                       # Cumulative time (in ticks) in various power states
system.cpu_cluster.cpus.itb.stage2_mmu.stage2_tlb.walker.pwrStateResidencyTicks::UNDEFINED 482829435585                       # Cumulative time (in ticks) in various power states
system.mem_ctrls.pwrStateResidencyTicks::UNDEFINED 482829435585                       # Cumulative time (in ticks) in various power states
system.mem_ctrls.bytes_read::.cpu_cluster.cpus.inst      7876608                       # Number of bytes read from this memory
system.mem_ctrls.bytes_read::.cpu_cluster.cpus.data      1546688                       # Number of bytes read from this memory
system.mem_ctrls.bytes_read::total            9423296                       # Number of bytes read from this memory
system.mem_ctrls.bytes_inst_read::.cpu_cluster.cpus.inst      7876608                       # Number of instructions bytes read from this memory
system.mem_ctrls.bytes_inst_read::total       7876608                       # Number of instructions bytes read from this memory
system.mem_ctrls.bytes_written::.writebacks       888064                       # Number of bytes written to this memory
system.mem_ctrls.bytes_written::total          888064                       # Number of bytes written to this memory
system.mem_ctrls.num_reads::.cpu_cluster.cpus.inst       123072                       # Number of read requests responded to by this memory
system.mem_ctrls.num_reads::.cpu_cluster.cpus.data        24167                       # Number of read requests responded to by this memory
system.mem_ctrls.num_reads::total              147239                       # Number of read requests responded to by this memory
system.mem_ctrls.num_writes::.writebacks        13876                       # Number of write requests responded to by this memory
system.mem_ctrls.num_writes::total              13876                       # Number of write requests responded to by this memory
system.mem_ctrls.bw_read::.cpu_cluster.cpus.inst     16313438                       # Total read bandwidth from this memory (bytes/s)
system.mem_ctrls.bw_read::.cpu_cluster.cpus.data      3203384                       # Total read bandwidth from this memory (bytes/s)
system.mem_ctrls.bw_read::total              19516822                       # Total read bandwidth from this memory (bytes/s)
system.mem_ctrls.bw_inst_read::.cpu_cluster.cpus.inst     16313438                       # Instruction read bandwidth from this memory (bytes/s)
system.mem_ctrls.bw_inst_read::total         16313438                       # Instruction read bandwidth from this memory (bytes/s)
system.mem_ctrls.bw_write::.writebacks        1839291                       # Write bandwidth from this memory (bytes/s)
system.mem_ctrls.bw_write::total              1839291                       # Write bandwidth from this memory (bytes/s)
system.mem_ctrls.bw_total::.writebacks        1839291                       # Total bandwidth to/from this memory (bytes/s)
system.mem_ctrls.bw_total::.cpu_cluster.cpus.inst     16313438                       # Total bandwidth to/from this memory (bytes/s)
system.mem_ctrls.bw_total::.cpu_cluster.cpus.data      3203384                       # Total bandwidth to/from this memory (bytes/s)
system.mem_ctrls.bw_total::total             21356113                       # Total bandwidth to/from this memory (bytes/s)
system.mem_ctrls.avgPriority_.writebacks::samples     26756.00                       # Average QoS priority value for accepted requests
system.mem_ctrls.avgPriority_.cpu_cluster.cpus.inst::samples    246146.00                       # Average QoS priority value for accepted requests
system.mem_ctrls.avgPriority_.cpu_cluster.cpus.data::samples     46623.00                       # Average QoS priority value for accepted requests
system.mem_ctrls.priorityMinLatency      0.000000020000                       # per QoS priority minimum request to response latency (s)
system.mem_ctrls.priorityMaxLatency      0.090162835592                       # per QoS priority maximum request to response latency (s)
system.mem_ctrls.numReadWriteTurnArounds         1594                       # Number of turnarounds from READ to WRITE
system.mem_ctrls.numWriteReadTurnArounds         1594                       # Number of turnarounds from WRITE to READ
system.mem_ctrls.numStayReadState              575534                       # Number of times bus staying in READ state
system.mem_ctrls.numStayWriteState              25174                       # Number of times bus staying in WRITE state
system.mem_ctrls.readReqs                      147240                       # Number of read requests accepted
system.mem_ctrls.writeReqs                      13876                       # Number of write requests accepted
system.mem_ctrls.readBursts                    294480                       # Number of DRAM read bursts, including those serviced by the write queue
system.mem_ctrls.writeBursts                    27752                       # Number of DRAM write bursts, including those merged in the write queue
system.mem_ctrls.servicedByWrQ                   1711                       # Number of DRAM read bursts serviced by the write queue
system.mem_ctrls.mergedWrBursts                   996                       # Number of DRAM write bursts merged with an existing one
system.mem_ctrls.neitherReadNorWriteReqs            0                       # Number of requests that are neither read nor write
system.mem_ctrls.perBankRdBursts::0             31864                       # Per bank write bursts
system.mem_ctrls.perBankRdBursts::1             18976                       # Per bank write bursts
system.mem_ctrls.perBankRdBursts::2             65226                       # Per bank write bursts
system.mem_ctrls.perBankRdBursts::3             26585                       # Per bank write bursts
system.mem_ctrls.perBankRdBursts::4             10221                       # Per bank write bursts
system.mem_ctrls.perBankRdBursts::5             17132                       # Per bank write bursts
system.mem_ctrls.perBankRdBursts::6             73017                       # Per bank write bursts
system.mem_ctrls.perBankRdBursts::7             49748                       # Per bank write bursts
system.mem_ctrls.perBankWrBursts::0              3224                       # Per bank write bursts
system.mem_ctrls.perBankWrBursts::1              3351                       # Per bank write bursts
system.mem_ctrls.perBankWrBursts::2              4179                       # Per bank write bursts
system.mem_ctrls.perBankWrBursts::3              4110                       # Per bank write bursts
system.mem_ctrls.perBankWrBursts::4              3612                       # Per bank write bursts
system.mem_ctrls.perBankWrBursts::5              2936                       # Per bank write bursts
system.mem_ctrls.perBankWrBursts::6              2586                       # Per bank write bursts
system.mem_ctrls.perBankWrBursts::7              2737                       # Per bank write bursts
system.mem_ctrls.avgRdQLen                       2.00                       # Average read queue length when enqueuing
system.mem_ctrls.avgWrQLen                      26.00                       # Average write queue length when enqueuing
system.mem_ctrls.totQLat                   4478665696                       # Total ticks spent queuing
system.mem_ctrls.totBusLat                 1463845000                       # Total ticks spent in databus transfers
system.mem_ctrls.totMemAccLat             10334045696                       # Total ticks spent from burst creation until serviced by the DRAM
system.mem_ctrls.avgQLat                     15297.61                       # Average queueing delay per DRAM burst
system.mem_ctrls.avgBusLat                    5000.00                       # Average bus latency per DRAM burst
system.mem_ctrls.avgMemAccLat                35297.61                       # Average memory access latency per DRAM burst
system.mem_ctrls.numRdRetry                         0                       # Number of times read queue was full causing retry
system.mem_ctrls.numWrRetry                         0                       # Number of times write queue was full causing retry
system.mem_ctrls.readRowHits                   240309                       # Number of row buffer hits during reads
system.mem_ctrls.writeRowHits                   21619                       # Number of row buffer hits during writes
system.mem_ctrls.readRowHitRate                 82.08                       # Row buffer hit rate for reads
system.mem_ctrls.writeRowHitRate                80.80                       # Row buffer hit rate for writes
system.mem_ctrls.readPktSize::0                     0                       # Read request sizes (log2)
system.mem_ctrls.readPktSize::1                     0                       # Read request sizes (log2)
system.mem_ctrls.readPktSize::2                     0                       # Read request sizes (log2)
system.mem_ctrls.readPktSize::3                     0                       # Read request sizes (log2)
system.mem_ctrls.readPktSize::4                     0                       # Read request sizes (log2)
system.mem_ctrls.readPktSize::5                294480                       # Read request sizes (log2)
system.mem_ctrls.writePktSize::0                    0                       # Write request sizes (log2)
system.mem_ctrls.writePktSize::1                    0                       # Write request sizes (log2)
system.mem_ctrls.writePktSize::2                    0                       # Write request sizes (log2)
system.mem_ctrls.writePktSize::3                    0                       # Write request sizes (log2)
system.mem_ctrls.writePktSize::4                    0                       # Write request sizes (log2)
system.mem_ctrls.writePktSize::5                27752                       # Write request sizes (log2)
system.mem_ctrls.rdQLenPdf::0                  140231                       # What read queue length does an incoming req see
system.mem_ctrls.rdQLenPdf::1                  141390                       # What read queue length does an incoming req see
system.mem_ctrls.rdQLenPdf::2                    6107                       # What read queue length does an incoming req see
system.mem_ctrls.rdQLenPdf::3                    4935                       # What read queue length does an incoming req see
system.mem_ctrls.rdQLenPdf::4                      55                       # What read queue length does an incoming req see
system.mem_ctrls.rdQLenPdf::5                      51                       # What read queue length does an incoming req see
[...]
system.mem_ctrls.rdQLenPdf::30                      0                       # What read queue length does an incoming req see
system.mem_ctrls.rdQLenPdf::31                      0                       # What read queue length does an incoming req see
system.mem_ctrls.wrQLenPdf::0                       1                       # What write queue length does an incoming req see
system.mem_ctrls.wrQLenPdf::1                       1                       # What write queue length does an incoming req see
system.mem_ctrls.wrQLenPdf::2                       1                       # What write queue length does an incoming req see
system.mem_ctrls.wrQLenPdf::3                       1                       # What write queue length does an incoming req see
system.mem_ctrls.wrQLenPdf::4                       1                       # What write queue length does an incoming req see
system.mem_ctrls.wrQLenPdf::5                       1                       # What write queue length does an incoming req see
system.mem_ctrls.wrQLenPdf::6                       1                       # What write queue length does an incoming req see
system.mem_ctrls.wrQLenPdf::7                       1                       # What write queue length does an incoming req see
system.mem_ctrls.wrQLenPdf::8                       1                       # What write queue length does an incoming req see
system.mem_ctrls.wrQLenPdf::9                       1                       # What write queue length does an incoming req see
system.mem_ctrls.wrQLenPdf::10                      1                       # What write queue length does an incoming req see
system.mem_ctrls.wrQLenPdf::11                      1                       # What write queue length does an incoming req see
system.mem_ctrls.wrQLenPdf::12                      1                       # What write queue length does an incoming req see
system.mem_ctrls.wrQLenPdf::13                      1                       # What write queue length does an incoming req see
system.mem_ctrls.wrQLenPdf::14                      1                       # What write queue length does an incoming req see
system.mem_ctrls.wrQLenPdf::15                    494                       # What write queue length does an incoming req see
system.mem_ctrls.wrQLenPdf::16                    528                       # What write queue length does an incoming req see
system.mem_ctrls.wrQLenPdf::17                   1408                       # What write queue length does an incoming req see
system.mem_ctrls.wrQLenPdf::18                   1558                       # What write queue length does an incoming req see
system.mem_ctrls.wrQLenPdf::19                   1602                       # What write queue length does an incoming req see
system.mem_ctrls.wrQLenPdf::20                   1607                       # What write queue length does an incoming req see
system.mem_ctrls.wrQLenPdf::21                   1629                       # What write queue length does an incoming req see
system.mem_ctrls.wrQLenPdf::22                   1631                       # What write queue length does an incoming req see
system.mem_ctrls.wrQLenPdf::23                   1620                       # What write queue length does an incoming req see
system.mem_ctrls.wrQLenPdf::24                   1632                       # What write queue length does an incoming req see
system.mem_ctrls.wrQLenPdf::25                   1624                       # What write queue length does an incoming req see
system.mem_ctrls.wrQLenPdf::26                   1605                       # What write queue length does an incoming req see
system.mem_ctrls.wrQLenPdf::27                   1612                       # What write queue length does an incoming req see
system.mem_ctrls.wrQLenPdf::28                   1613                       # What write queue length does an incoming req see
system.mem_ctrls.wrQLenPdf::29                   1598                       # What write queue length does an incoming req see
system.mem_ctrls.wrQLenPdf::30                   1594                       # What write queue length does an incoming req see
system.mem_ctrls.wrQLenPdf::31                   1594                       # What write queue length does an incoming req see
system.mem_ctrls.wrQLenPdf::32                   1594                       # What write queue length does an incoming req see
system.mem_ctrls.wrQLenPdf::33                    194                       # What write queue length does an incoming req see
system.mem_ctrls.wrQLenPdf::34                      2                       # What write queue length does an incoming req see
system.mem_ctrls.wrQLenPdf::35                      1                       # What write queue length does an incoming req see
system.mem_ctrls.wrQLenPdf::36                      1                       # What write queue length does an incoming req see
system.mem_ctrls.wrQLenPdf::37                      0                       # What write queue length does an incoming req see
system.mem_ctrls.wrQLenPdf::38                      0                       # What write queue length does an incoming req see
system.mem_ctrls.wrQLenPdf::39                      0                       # What write queue length does an incoming req see
system.mem_ctrls.wrQLenPdf::40                      0                       # What write queue length does an incoming req see
system.mem_ctrls.wrQLenPdf::41                      0                       # What write queue length does an incoming req see
system.mem_ctrls.wrQLenPdf::42                      0                       # What write queue length does an incoming req see
system.mem_ctrls.wrQLenPdf::43                      0                       # What write queue length does an incoming req see
system.mem_ctrls.wrQLenPdf::44                      0                       # What write queue length does an incoming req see
system.mem_ctrls.wrQLenPdf::45                      0                       # What write queue length does an incoming req see
system.mem_ctrls.wrQLenPdf::46                      0                       # What write queue length does an incoming req see
system.mem_ctrls.wrQLenPdf::47                      0                       # What write queue length does an incoming req see
system.mem_ctrls.wrQLenPdf::48                      0                       # What write queue length does an incoming req see
system.mem_ctrls.wrQLenPdf::49                      0                       # What write queue length does an incoming req see
system.mem_ctrls.wrQLenPdf::50                      0                       # What write queue length does an incoming req see
system.mem_ctrls.wrQLenPdf::51                      0                       # What write queue length does an incoming req see
system.mem_ctrls.wrQLenPdf::52                      0                       # What write queue length does an incoming req see
system.mem_ctrls.wrQLenPdf::53                      0                       # What write queue length does an incoming req see
system.mem_ctrls.wrQLenPdf::54                      0                       # What write queue length does an incoming req see
system.mem_ctrls.wrQLenPdf::55                      0                       # What write queue length does an incoming req see
system.mem_ctrls.wrQLenPdf::56                      0                       # What write queue length does an incoming req see
system.mem_ctrls.wrQLenPdf::57                      0                       # What write queue length does an incoming req see
system.mem_ctrls.wrQLenPdf::58                      0                       # What write queue length does an incoming req see
system.mem_ctrls.wrQLenPdf::59                      0                       # What write queue length does an incoming req see
system.mem_ctrls.wrQLenPdf::60                      0                       # What write queue length does an incoming req see
system.mem_ctrls.wrQLenPdf::61                      0                       # What write queue length does an incoming req see
system.mem_ctrls.wrQLenPdf::62                      0                       # What write queue length does an incoming req see
system.mem_ctrls.wrQLenPdf::63                      0                       # What write queue length does an incoming req see
system.mem_ctrls.bytesPerActivate::samples        57571                       # Bytes accessed per row activation
system.mem_ctrls.bytesPerActivate::mean    177.573848                       # Bytes accessed per row activation
system.mem_ctrls.bytesPerActivate::gmean   137.930318                       # Bytes accessed per row activation
system.mem_ctrls.bytesPerActivate::stdev   129.657189                       # Bytes accessed per row activation
system.mem_ctrls.bytesPerActivate::0-63           595      1.03%      1.03% # Bytes accessed per row activation
system.mem_ctrls.bytesPerActivate::64-127        20945     36.38%     37.41% # Bytes accessed per row activation
system.mem_ctrls.bytesPerActivate::128-191        11287     19.61%     57.02% # Bytes accessed per row activation
system.mem_ctrls.bytesPerActivate::192-255         8792     15.27%     72.29% # Bytes accessed per row activation
system.mem_ctrls.bytesPerActivate::256-319         4500      7.82%     80.11% # Bytes accessed per row activation
system.mem_ctrls.bytesPerActivate::320-383         5244      9.11%     89.22% # Bytes accessed per row activation
system.mem_ctrls.bytesPerActivate::384-447         1546      2.69%     91.90% # Bytes accessed per row activation
system.mem_ctrls.bytesPerActivate::448-511         1714      2.98%     94.88% # Bytes accessed per row activation
system.mem_ctrls.bytesPerActivate::512-575         2948      5.12%    100.00% # Bytes accessed per row activation
system.mem_ctrls.bytesPerActivate::total        57571                       # Bytes accessed per row activation
system.mem_ctrls.rdPerTurnAround::samples         1594                       # Reads before turning the bus around for writes
system.mem_ctrls.rdPerTurnAround::mean     183.517566                       # Reads before turning the bus around for writes
system.mem_ctrls.rdPerTurnAround::gmean     63.105573                       # Reads before turning the bus around for writes
system.mem_ctrls.rdPerTurnAround::stdev    293.035159                       # Reads before turning the bus around for writes
system.mem_ctrls.rdPerTurnAround::0-127          1186     74.40%     74.40% # Reads before turning the bus around for writes
system.mem_ctrls.rdPerTurnAround::128-255           22      1.38%     75.78% # Reads before turning the bus around for writes
system.mem_ctrls.rdPerTurnAround::256-383           50      3.14%     78.92% # Reads before turning the bus around for writes
system.mem_ctrls.rdPerTurnAround::384-511           85      5.33%     84.25% # Reads before turning the bus around for writes
system.mem_ctrls.rdPerTurnAround::512-639           83      5.21%     89.46% # Reads before turning the bus around for writes
system.mem_ctrls.rdPerTurnAround::640-767           62      3.89%     93.35% # Reads before turning the bus around for writes
system.mem_ctrls.rdPerTurnAround::768-895           52      3.26%     96.61% # Reads before turning the bus around for writes
system.mem_ctrls.rdPerTurnAround::896-1023           25      1.57%     98.18% # Reads before turning the bus around for writes
system.mem_ctrls.rdPerTurnAround::1024-1151           11      0.69%     98.87% # Reads before turning the bus around for writes
system.mem_ctrls.rdPerTurnAround::1152-1279           10      0.63%     99.50% # Reads before turning the bus around for writes
system.mem_ctrls.rdPerTurnAround::1280-1407            6      0.38%     99.87% # Reads before turning the bus around for writes
system.mem_ctrls.rdPerTurnAround::1536-1663            1      0.06%     99.94% # Reads before turning the bus around for writes
system.mem_ctrls.rdPerTurnAround::2688-2815            1      0.06%    100.00% # Reads before turning the bus around for writes
system.mem_ctrls.rdPerTurnAround::total          1594                       # Reads before turning the bus around for writes
system.mem_ctrls.wrPerTurnAround::samples         1594                       # Writes before turning the bus around for reads
system.mem_ctrls.wrPerTurnAround::mean      16.772271                       # Writes before turning the bus around for reads
system.mem_ctrls.wrPerTurnAround::gmean     16.732264                       # Writes before turning the bus around for reads
system.mem_ctrls.wrPerTurnAround::stdev      1.192763                       # Writes before turning the bus around for reads
system.mem_ctrls.wrPerTurnAround::16             1065     66.81%     66.81% # Writes before turning the bus around for reads
system.mem_ctrls.wrPerTurnAround::17               23      1.44%     68.26% # Writes before turning the bus around for reads
system.mem_ctrls.wrPerTurnAround::18              393     24.65%     92.91% # Writes before turning the bus around for reads
system.mem_ctrls.wrPerTurnAround::19               36      2.26%     95.17% # Writes before turning the bus around for reads
system.mem_ctrls.wrPerTurnAround::20               74      4.64%     99.81% # Writes before turning the bus around for reads
system.mem_ctrls.wrPerTurnAround::21                2      0.13%     99.94% # Writes before turning the bus around for reads
system.mem_ctrls.wrPerTurnAround::24                1      0.06%    100.00% # Writes before turning the bus around for reads
system.mem_ctrls.wrPerTurnAround::total          1594                       # Writes before turning the bus around for reads
system.mem_ctrls.bytesReadDRAM                9368608                       # Total number of bytes read from DRAM
system.mem_ctrls.bytesReadWrQ                   54752                       # Total number of bytes read from write queue
system.mem_ctrls.bytesWritten                  855520                       # Total number of bytes written to DRAM
system.mem_ctrls.bytesReadSys                 9423360                       # Total read bytes from the system interface side
system.mem_ctrls.bytesWrittenSys               888064                       # Total written bytes from the system interface side
system.mem_ctrls.avgRdBW                        19.40                       # Average DRAM read bandwidth in MiByte/s
system.mem_ctrls.avgWrBW                         1.77                       # Average achieved write bandwidth in MiByte/s
system.mem_ctrls.avgRdBWSys                     19.52                       # Average system read bandwidth in MiByte/s
system.mem_ctrls.avgWrBWSys                      1.84                       # Average system write bandwidth in MiByte/s
system.mem_ctrls.peakBW                       6400.00                       # Theoretical peak bandwidth in MiByte/s
system.mem_ctrls.busUtil                         0.33                       # Data bus utilization in percentage
system.mem_ctrls.busUtilRead                     0.30                       # Data bus utilization in percentage for reads
system.mem_ctrls.busUtilWrite                    0.03                       # Data bus utilization in percentage for writes
system.mem_ctrls.totGap                  482829433086                       # Total gap between requests
system.mem_ctrls.avgGap                    2996781.41                       # Average gap between requests
system.mem_ctrls.masterReadBytes::.cpu_cluster.cpus.inst      7876672                       # Per-master bytes read from memory
system.mem_ctrls.masterReadBytes::.cpu_cluster.cpus.data      1491936                       # Per-master bytes read from memory
system.mem_ctrls.masterWriteBytes::.writebacks       855520                       # Per-master bytes write to memory
system.mem_ctrls.masterReadRate::.cpu_cluster.cpus.inst 16313570.423593915999                       # Per-master bytes read from memory rate (Bytes/sec)
system.mem_ctrls.masterReadRate::.cpu_cluster.cpus.data 3089985.593343865592                       # Per-master bytes read from memory rate (Bytes/sec)
system.mem_ctrls.masterWriteRate::.writebacks 1771888.656629737467                       # Per-master bytes write to memory rate (Bytes/sec)
system.mem_ctrls.masterReadAccesses::.cpu_cluster.cpus.inst       246146                       # Per-master read serviced memory accesses
system.mem_ctrls.masterReadAccesses::.cpu_cluster.cpus.data        48334                       # Per-master read serviced memory accesses
system.mem_ctrls.masterWriteAccesses::.writebacks        27752                       # Per-master write serviced memory accesses
system.mem_ctrls.masterReadTotalLat::.cpu_cluster.cpus.inst   8308053066                       # Per-master read total memory access latency
system.mem_ctrls.masterReadTotalLat::.cpu_cluster.cpus.data   2025992630                       # Per-master read total memory access latency
system.mem_ctrls.masterWriteTotalLat::.writebacks 11642922866267                       # Per-master write total memory access latency
system.mem_ctrls.masterReadAvgLat::.cpu_cluster.cpus.inst     33752.54                       # Per-master read average memory access latency
system.mem_ctrls.masterReadAvgLat::.cpu_cluster.cpus.data     41916.51                       # Per-master read average memory access latency
system.mem_ctrls.masterWriteAvgLat::.writebacks 419534551.25                       # Per-master write average memory access latency
system.mem_ctrls.pageHitRate                    81.97                       # Row buffer hit rate, read and write combined
system.mem_ctrls.rank0.actEnergy            102773160                       # Energy for activate commands per rank (pJ)
system.mem_ctrls.rank0.preEnergy         54162796.799999                       # Energy for precharge commands per rank (pJ)
system.mem_ctrls.rank0.readEnergy           344295168                       # Energy for read commands per rank (pJ)
system.mem_ctrls.rank0.writeEnergy           25023960                       # Energy for write commands per rank (pJ)
system.mem_ctrls.rank0.refreshEnergy       3007411680                       # Energy for refresh commands per rank (pJ)
system.mem_ctrls.rank0.actBackEnergy       1441585749                       # Energy for active background per rank (pJ)
system.mem_ctrls.rank0.preBackEnergy     14699792464.806866                       # Energy for precharge background per rank (pJ)
system.mem_ctrls.rank0.actPowerDownEnergy            0                       # Energy for active power-down per rank (pJ)
system.mem_ctrls.rank0.prePowerDownEnergy            0                       # Energy for precharge power-down per rank (pJ)
system.mem_ctrls.rank0.selfRefreshEnergy            0                       # Energy for self refresh per rank (pJ)
system.mem_ctrls.rank0.totalEnergy       19675044978.586918                       # Total energy per rank (pJ)
system.mem_ctrls.rank0.averagePower         40.749473                       # Core power per rank (mW)
system.mem_ctrls.rank0.totalIdleTime                0                       # Total Idle time Per DRAM Rank
system.mem_ctrls.rank0.memoryStateTime::IDLE 447903865186                       # Time in different power states
system.mem_ctrls.rank0.memoryStateTime::REF  16168880000                       # Time in different power states
system.mem_ctrls.rank0.memoryStateTime::SREF            0                       # Time in different power states
system.mem_ctrls.rank0.memoryStateTime::PRE_PDN            0                       # Time in different power states
system.mem_ctrls.rank0.memoryStateTime::ACT  18756690399                       # Time in different power states
system.mem_ctrls.rank0.memoryStateTime::ACT_PDN            0                       # Time in different power states

---------- End Simulation Statistics   ----------
