
---------- Begin Simulation Statistics ----------
final_tick                               224285970090                       # Number of ticks from beginning of simulation (restored from checkpoints and never reset)
host_inst_rate                                 131558                       # Simulator instruction rate (inst/s)
host_mem_usage                                4616676                       # Number of bytes of host memory used
host_op_rate                                   160347                       # Simulator op (including micro ops) rate (op/s)
host_seconds                                  2955.64                       # Real time elapsed on the host
host_tick_rate                               75884101                       # Simulator tick rate (ticks/s)
sim_freq                                 1000000000000                       # Frequency of simulated ticks
sim_insts                                   388838488                       # Number of instructions simulated
sim_ops                                     473927285                       # Number of ops (including micro ops) simulated
sim_seconds                                  0.224286                       # Number of seconds simulated
sim_ticks                                224285970090                       # Number of ticks simulated
system.cpu_cluster.cpus.branchPred.BTBCorrect            0                       # Number of correct BTB predictions (this stat may not work properly.
system.cpu_cluster.cpus.branchPred.BTBHitPct    88.254468                       # BTB Hit Percentage
system.cpu_cluster.cpus.branchPred.BTBHits     14619162                       # Number of BTB hits
system.cpu_cluster.cpus.branchPred.BTBLookups     16564784                       # Number of BTB lookups
system.cpu_cluster.cpus.branchPred.RASInCorrect           32                       # Number of incorrect RAS predictions.
system.cpu_cluster.cpus.branchPred.condIncorrect      2496115                       # Number of conditional branches incorrect
system.cpu_cluster.cpus.branchPred.condPredicted     48545956                       # Number of conditional branches predicted
system.cpu_cluster.cpus.branchPred.indirectHits        70274                       # Number of indirect target hits.
system.cpu_cluster.cpus.branchPred.indirectLookups        86146                       # Number of indirect predictor lookups.
system.cpu_cluster.cpus.branchPred.indirectMisses        15872                       # Number of indirect misses.
system.cpu_cluster.cpus.branchPred.lookups     54410907                       # Number of BP lookups
system.cpu_cluster.cpus.branchPred.usedRAS      2418771                       # Number of times the RAS was used to get a target.
system.cpu_cluster.cpus.branchPredindirectMispredicted         7928                       # Number of mispredicted indirect branches.
system.cpu_cluster.cpus.committedInsts      388838488                       # Number of instructions committed
system.cpu_cluster.cpus.committedOps        473927285                       # Number of ops (including micro ops) committed
system.cpu_cluster.cpus.cpi                  1.267715                       # CPI: cycles per instruction
system.cpu_cluster.cpus.dcache.prefetcher.num_hwpf_issued         1480                       # number of hwpf issued
system.cpu_cluster.cpus.dcache.prefetcher.pfBufferHit           10                       # number of redundant prefetches already in prefetch queue
system.cpu_cluster.cpus.dcache.prefetcher.pfIdentified         1502                       # number of prefetch candidates identified
system.cpu_cluster.cpus.dcache.prefetcher.pfInCache            0                       # number of redundant prefetches already in cache/mshr dropped
system.cpu_cluster.cpus.dcache.prefetcher.pfRemovedFull            4                       # number of prefetches dropped due to prefetch queue size
system.cpu_cluster.cpus.dcache.prefetcher.pfSpanPage          318                       # number of prefetches that crossed the page
system.cpu_cluster.cpus.discardedOps          7717923                       # Number of ops (including micro ops) which were discarded before commit
system.cpu_cluster.cpus.dtb.accesses                0                       # DTB accesses
system.cpu_cluster.cpus.dtb.align_faults            0                       # Number of TLB faults due to alignment restrictions
system.cpu_cluster.cpus.dtb.domain_faults            0                       # Number of TLB faults due to domain restrictions
system.cpu_cluster.cpus.dtb.flush_entries            0                       # Number of entries that have been flushed from TLB
system.cpu_cluster.cpus.dtb.flush_tlb               0                       # Number of times complete TLB was flushed
system.cpu_cluster.cpus.dtb.flush_tlb_asid            0                       # Number of times TLB was flushed by ASID
system.cpu_cluster.cpus.dtb.flush_tlb_mva            0                       # Number of times TLB was flushed by MVA
system.cpu_cluster.cpus.dtb.flush_tlb_mva_asid            0                       # Number of times TLB was flushed by MVA & ASID
system.cpu_cluster.cpus.dtb.hits                    0                       # DTB hits
system.cpu_cluster.cpus.dtb.inst_accesses            0                       # ITB inst accesses
system.cpu_cluster.cpus.dtb.inst_hits               0                       # ITB inst hits
system.cpu_cluster.cpus.dtb.inst_misses             0                       # ITB inst misses
system.cpu_cluster.cpus.dtb.misses                  0                       # DTB misses
system.cpu_cluster.cpus.dtb.perms_faults            0                       # Number of TLB faults due to permissions restrictions
system.cpu_cluster.cpus.dtb.prefetch_faults            0                       # Number of TLB faults due to prefetch
system.cpu_cluster.cpus.dtb.read_accesses            0                       # DTB read accesses
system.cpu_cluster.cpus.dtb.read_hits               0                       # DTB read hits
system.cpu_cluster.cpus.dtb.read_misses             0                       # DTB read misses
system.cpu_cluster.cpus.dtb.stage2_mmu.stage2_tlb.accesses            0                       # DTB accesses
system.cpu_cluster.cpus.dtb.stage2_mmu.stage2_tlb.align_faults            0                       # Number of TLB faults due to alignment restrictions
system.cpu_cluster.cpus.dtb.stage2_mmu.stage2_tlb.domain_faults            0                       # Number of TLB faults due to domain restrictions
system.cpu_cluster.cpus.dtb.stage2_mmu.stage2_tlb.flush_entries            0                       # Number of entries that have been flushed from TLB
system.cpu_cluster.cpus.dtb.stage2_mmu.stage2_tlb.flush_tlb            0                       # Number of times complete TLB was flushed
system.cpu_cluster.cpus.dtb.stage2_mmu.stage2_tlb.flush_tlb_asid            0                       # Number of times TLB was flushed by ASID
system.cpu_cluster.cpus.dtb.stage2_mmu.stage2_tlb.flush_tlb_mva            0                       # Number of times TLB was flushed by MVA
system.cpu_cluster.cpus.dtb.stage2_mmu.stage2_tlb.flush_tlb_mva_asid            0                       # Number of times TLB was flushed by MVA & ASID
system.cpu_cluster.cpus.dtb.stage2_mmu.stage2_tlb.hits            0                       # DTB hits
system.cpu_cluster.cpus.dtb.stage2_mmu.stage2_tlb.inst_accesses            0                       # ITB inst accesses
system.cpu_cluster.cpus.dtb.stage2_mmu.stage2_tlb.inst_hits            0                       # ITB inst hits
system.cpu_cluster.cpus.dtb.stage2_mmu.stage2_tlb.inst_misses            0                       # ITB inst misses
system.cpu_cluster.cpus.dtb.stage2_mmu.stage2_tlb.misses            0                       # DTB misses
system.cpu_cluster.cpus.dtb.stage2_mmu.stage2_tlb.perms_faults            0                       # Number of TLB faults due to permissions restrictions
system.cpu_cluster.cpus.dtb.stage2_mmu.stage2_tlb.prefetch_faults            0                       # Number of TLB faults due to prefetch
system.cpu_cluster.cpus.dtb.stage2_mmu.stage2_tlb.read_accesses            0                       # DTB read accesses
system.cpu_cluster.cpus.dtb.stage2_mmu.stage2_tlb.read_hits            0                       # DTB read hits
system.cpu_cluster.cpus.dtb.stage2_mmu.stage2_tlb.read_misses            0                       # DTB read misses
system.cpu_cluster.cpus.dtb.stage2_mmu.stage2_tlb.walker.walkRequestOrigin_Requested::Data            0                       # Table walker requests started/completed, data/inst
system.cpu_cluster.cpus.dtb.stage2_mmu.stage2_tlb.walker.walkRequestOrigin_Requested::Inst            0                       # Table walker requests started/completed, data/inst
system.cpu_cluster.cpus.dtb.stage2_mmu.stage2_tlb.walker.walkRequestOrigin_Requested::total            0                       # Table walker requests started/completed, data/inst
system.cpu_cluster.cpus.dtb.stage2_mmu.stage2_tlb.walker.walkRequestOrigin_Completed::Data            0                       # Table walker requests started/completed, data/inst
system.cpu_cluster.cpus.dtb.stage2_mmu.stage2_tlb.walker.walkRequestOrigin_Completed::Inst            0                       # Table walker requests started/completed, data/inst
system.cpu_cluster.cpus.dtb.stage2_mmu.stage2_tlb.walker.walkRequestOrigin_Completed::total            0                       # Table walker requests started/completed, data/inst
system.cpu_cluster.cpus.dtb.stage2_mmu.stage2_tlb.walker.walkRequestOrigin::total            0                       # Table walker requests started/completed, data/inst
system.cpu_cluster.cpus.dtb.stage2_mmu.stage2_tlb.walker.walks            0                       # Table walker walks requested
system.cpu_cluster.cpus.dtb.stage2_mmu.stage2_tlb.write_accesses            0                       # DTB write accesses
system.cpu_cluster.cpus.dtb.stage2_mmu.stage2_tlb.write_hits            0                       # DTB write hits
system.cpu_cluster.cpus.dtb.stage2_mmu.stage2_tlb.write_misses            0                       # DTB write misses
system.cpu_cluster.cpus.dtb.walker.walkRequestOrigin_Requested::Data            0                       # Table walker requests started/completed, data/inst
system.cpu_cluster.cpus.dtb.walker.walkRequestOrigin_Requested::Inst            0                       # Table walker requests started/completed, data/inst
system.cpu_cluster.cpus.dtb.walker.walkRequestOrigin_Requested::total            0                       # Table walker requests started/completed, data/inst
system.cpu_cluster.cpus.dtb.walker.walkRequestOrigin_Completed::Data            0                       # Table walker requests started/completed, data/inst
system.cpu_cluster.cpus.dtb.walker.walkRequestOrigin_Completed::Inst            0                       # Table walker requests started/completed, data/inst
system.cpu_cluster.cpus.dtb.walker.walkRequestOrigin_Completed::total            0                       # Table walker requests started/completed, data/inst
system.cpu_cluster.cpus.dtb.walker.walkRequestOrigin::total            0                       # Table walker requests started/completed, data/inst
system.cpu_cluster.cpus.dtb.walker.walks            0                       # Table walker walks requested
system.cpu_cluster.cpus.dtb.write_accesses            0                       # DTB write accesses
system.cpu_cluster.cpus.dtb.write_hits              0                       # DTB write hits
system.cpu_cluster.cpus.dtb.write_misses            0                       # DTB write misses
system.cpu_cluster.cpus.fetch2.amo_instructions          261                       # Number of memory atomic instructions successfully decoded
system.cpu_cluster.cpus.fetch2.fp_instructions            0                       # Number of floating point instructions successfully decoded
system.cpu_cluster.cpus.fetch2.int_instructions    208242282                       # Number of integer instructions successfully decoded
system.cpu_cluster.cpus.fetch2.load_instructions     89377937                       # Number of memory load instructions successfully decoded
system.cpu_cluster.cpus.fetch2.store_instructions     25229781                       # Number of memory store instructions successfully decoded
system.cpu_cluster.cpus.fetch2.vec_instructions       214582                       # Number of SIMD instructions successfully decoded
system.cpu_cluster.cpus.idleCycles            2229900                       # Total number of cycles that the object has spent stopped
system.cpu_cluster.cpus.ipc                  0.788821                       # IPC: instructions per cycle
system.cpu_cluster.cpus.itb.accesses                0                       # DTB accesses
system.cpu_cluster.cpus.itb.align_faults            0                       # Number of TLB faults due to alignment restrictions
system.cpu_cluster.cpus.itb.domain_faults            0                       # Number of TLB faults due to domain restrictions
system.cpu_cluster.cpus.itb.flush_entries            0                       # Number of entries that have been flushed from TLB
system.cpu_cluster.cpus.itb.flush_tlb               0                       # Number of times complete TLB was flushed
system.cpu_cluster.cpus.itb.flush_tlb_asid            0                       # Number of times TLB was flushed by ASID
system.cpu_cluster.cpus.itb.flush_tlb_mva            0                       # Number of times TLB was flushed by MVA
system.cpu_cluster.cpus.itb.flush_tlb_mva_asid            0                       # Number of times TLB was flushed by MVA & ASID
system.cpu_cluster.cpus.itb.hits                    0                       # DTB hits
system.cpu_cluster.cpus.itb.inst_accesses            0                       # ITB inst accesses
system.cpu_cluster.cpus.itb.inst_hits               0                       # ITB inst hits
system.cpu_cluster.cpus.itb.inst_misses             0                       # ITB inst misses
system.cpu_cluster.cpus.itb.misses                  0                       # DTB misses
system.cpu_cluster.cpus.itb.perms_faults            0                       # Number of TLB faults due to permissions restrictions
system.cpu_cluster.cpus.itb.prefetch_faults            0                       # Number of TLB faults due to prefetch
system.cpu_cluster.cpus.itb.read_accesses            0                       # DTB read accesses
system.cpu_cluster.cpus.itb.read_hits               0                       # DTB read hits
system.cpu_cluster.cpus.itb.read_misses             0                       # DTB read misses
system.cpu_cluster.cpus.itb.stage2_mmu.stage2_tlb.accesses            0                       # DTB accesses
system.cpu_cluster.cpus.itb.stage2_mmu.stage2_tlb.align_faults            0                       # Number of TLB faults due to alignment restrictions
system.cpu_cluster.cpus.itb.stage2_mmu.stage2_tlb.domain_faults            0                       # Number of TLB faults due to domain restrictions
system.cpu_cluster.cpus.itb.stage2_mmu.stage2_tlb.flush_entries            0                       # Number of entries that have been flushed from TLB
system.cpu_cluster.cpus.itb.stage2_mmu.stage2_tlb.flush_tlb            0                       # Number of times complete TLB was flushed
system.cpu_cluster.cpus.itb.stage2_mmu.stage2_tlb.flush_tlb_asid            0                       # Number of times TLB was flushed by ASID
system.cpu_cluster.cpus.itb.stage2_mmu.stage2_tlb.flush_tlb_mva            0                       # Number of times TLB was flushed by MVA
system.cpu_cluster.cpus.itb.stage2_mmu.stage2_tlb.flush_tlb_mva_asid            0                       # Number of times TLB was flushed by MVA & ASID
system.cpu_cluster.cpus.itb.stage2_mmu.stage2_tlb.hits            0                       # DTB hits
system.cpu_cluster.cpus.itb.stage2_mmu.stage2_tlb.inst_accesses            0                       # ITB inst accesses
system.cpu_cluster.cpus.itb.stage2_mmu.stage2_tlb.inst_hits            0                       # ITB inst hits
system.cpu_cluster.cpus.itb.stage2_mmu.stage2_tlb.inst_misses            0                       # ITB inst misses
system.cpu_cluster.cpus.itb.stage2_mmu.stage2_tlb.misses            0                       # DTB misses
system.cpu_cluster.cpus.itb.stage2_mmu.stage2_tlb.perms_faults            0                       # Number of TLB faults due to permissions restrictions
system.cpu_cluster.cpus.itb.stage2_mmu.stage2_tlb.prefetch_faults            0                       # Number of TLB faults due to prefetch
system.cpu_cluster.cpus.itb.stage2_mmu.stage2_tlb.read_accesses            0                       # DTB read accesses
system.cpu_cluster.cpus.itb.stage2_mmu.stage2_tlb.read_hits            0                       # DTB read hits
system.cpu_cluster.cpus.itb.stage2_mmu.stage2_tlb.read_misses            0                       # DTB read misses
system.cpu_cluster.cpus.itb.stage2_mmu.stage2_tlb.walker.walkRequestOrigin_Requested::Data            0                       # Table walker requests started/completed, data/inst
system.cpu_cluster.cpus.itb.stage2_mmu.stage2_tlb.walker.walkRequestOrigin_Requested::Inst            0                       # Table walker requests started/completed, data/inst
system.cpu_cluster.cpus.itb.stage2_mmu.stage2_tlb.walker.walkRequestOrigin_Requested::total            0                       # Table walker requests started/completed, data/inst
system.cpu_cluster.cpus.itb.stage2_mmu.stage2_tlb.walker.walkRequestOrigin_Completed::Data            0                       # Table walker requests started/completed, data/inst
system.cpu_cluster.cpus.itb.stage2_mmu.stage2_tlb.walker.walkRequestOrigin_Completed::Inst            0                       # Table walker requests started/completed, data/inst
system.cpu_cluster.cpus.itb.stage2_mmu.stage2_tlb.walker.walkRequestOrigin_Completed::total            0                       # Table walker requests started/completed, data/inst
system.cpu_cluster.cpus.itb.stage2_mmu.stage2_tlb.walker.walkRequestOrigin::total            0                       # Table walker requests started/completed, data/inst
system.cpu_cluster.cpus.itb.stage2_mmu.stage2_tlb.walker.walks            0                       # Table walker walks requested
system.cpu_cluster.cpus.itb.stage2_mmu.stage2_tlb.write_accesses            0                       # DTB write accesses
system.cpu_cluster.cpus.itb.stage2_mmu.stage2_tlb.write_hits            0                       # DTB write hits
system.cpu_cluster.cpus.itb.stage2_mmu.stage2_tlb.write_misses            0                       # DTB write misses
system.cpu_cluster.cpus.itb.walker.walkRequestOrigin_Requested::Data            0                       # Table walker requests started/completed, data/inst
system.cpu_cluster.cpus.itb.walker.walkRequestOrigin_Requested::Inst            0                       # Table walker requests started/completed, data/inst
system.cpu_cluster.cpus.itb.walker.walkRequestOrigin_Requested::total            0                       # Table walker requests started/completed, data/inst
system.cpu_cluster.cpus.itb.walker.walkRequestOrigin_Completed::Data            0                       # Table walker requests started/completed, data/inst
system.cpu_cluster.cpus.itb.walker.walkRequestOrigin_Completed::Inst            0                       # Table walker requests started/completed, data/inst
system.cpu_cluster.cpus.itb.walker.walkRequestOrigin_Completed::total            0                       # Table walker requests started/completed, data/inst
system.cpu_cluster.cpus.itb.walker.walkRequestOrigin::total            0                       # Table walker requests started/completed, data/inst
system.cpu_cluster.cpus.itb.walker.walks            0                       # Table walker walks requested
system.cpu_cluster.cpus.itb.write_accesses            0                       # DTB write accesses
system.cpu_cluster.cpus.itb.write_hits              0                       # DTB write hits
system.cpu_cluster.cpus.itb.write_misses            0                       # DTB write misses
system.cpu_cluster.cpus.numCycles           492936198                       # number of cpu cycles simulated
system.cpu_cluster.cpus.numFetchSuspends            0                       # Number of times Execute suspended instruction fetching
system.cpu_cluster.cpus.numWorkItemsCompleted            0                       # number of work items this cpu completed
system.cpu_cluster.cpus.numWorkItemsStarted            0                       # number of work items this cpu started
system.cpu_cluster.cpus.op_class_0::No_OpClass        29528      0.01%      0.01% # Class of committed instruction
system.cpu_cluster.cpus.op_class_0::IntAlu    290184744     61.23%     61.24% # Class of committed instruction
system.cpu_cluster.cpus.op_class_0::IntMult        12565      0.00%     61.24% # Class of committed instruction
system.cpu_cluster.cpus.op_class_0::IntDiv           37      0.00%     61.24% # Class of committed instruction
system.cpu_cluster.cpus.op_class_0::FloatAdd         2208      0.00%     61.24% # Class of committed instruction
system.cpu_cluster.cpus.op_class_0::FloatCmp           12      0.00%     61.24% # Class of committed instruction
system.cpu_cluster.cpus.op_class_0::FloatCvt         2209      0.00%     61.24% # Class of committed instruction
system.cpu_cluster.cpus.op_class_0::FloatMult            0      0.00%     61.24% # Class of committed instruction
system.cpu_cluster.cpus.op_class_0::FloatMultAcc            0      0.00%     61.24% # Class of committed instruction
system.cpu_cluster.cpus.op_class_0::FloatDiv         2211      0.00%     61.24% # Class of committed instruction
system.cpu_cluster.cpus.op_class_0::FloatMisc         9237      0.00%     61.24% # Class of committed instruction
system.cpu_cluster.cpus.op_class_0::FloatSqrt            0      0.00%     61.24% # Class of committed instruction
system.cpu_cluster.cpus.op_class_0::SimdAdd         8492      0.00%     61.24% # Class of committed instruction
system.cpu_cluster.cpus.op_class_0::SimdAddAcc            0      0.00%     61.24% # Class of committed instruction
system.cpu_cluster.cpus.op_class_0::SimdAlu         8511      0.00%     61.25% # Class of committed instruction
system.cpu_cluster.cpus.op_class_0::SimdCmp         9254      0.00%     61.25% # Class of committed instruction
system.cpu_cluster.cpus.op_class_0::SimdCvt            2      0.00%     61.25% # Class of committed instruction
system.cpu_cluster.cpus.op_class_0::SimdMisc       150374      0.03%     61.28% # Class of committed instruction
system.cpu_cluster.cpus.op_class_0::SimdMult            0      0.00%     61.28% # Class of committed instruction
system.cpu_cluster.cpus.op_class_0::SimdMultAcc            0      0.00%     61.28% # Class of committed instruction
system.cpu_cluster.cpus.op_class_0::SimdShift            2      0.00%     61.28% # Class of committed instruction
system.cpu_cluster.cpus.op_class_0::SimdShiftAcc            0      0.00%     61.28% # Class of committed instruction
system.cpu_cluster.cpus.op_class_0::SimdDiv            0      0.00%     61.28% # Class of committed instruction
system.cpu_cluster.cpus.op_class_0::SimdSqrt            0      0.00%     61.28% # Class of committed instruction
system.cpu_cluster.cpus.op_class_0::SimdFloatAdd            0      0.00%     61.28% # Class of committed instruction
system.cpu_cluster.cpus.op_class_0::SimdFloatAlu            0      0.00%     61.28% # Class of committed instruction
system.cpu_cluster.cpus.op_class_0::SimdFloatCmp            0      0.00%     61.28% # Class of committed instruction
system.cpu_cluster.cpus.op_class_0::SimdFloatCvt            0      0.00%     61.28% # Class of committed instruction
system.cpu_cluster.cpus.op_class_0::SimdFloatDiv            0      0.00%     61.28% # Class of committed instruction
system.cpu_cluster.cpus.op_class_0::SimdFloatMisc            0      0.00%     61.28% # Class of committed instruction
system.cpu_cluster.cpus.op_class_0::SimdFloatMult            0      0.00%     61.28% # Class of committed instruction
system.cpu_cluster.cpus.op_class_0::SimdFloatMultAcc            0      0.00%     61.28% # Class of committed instruction
system.cpu_cluster.cpus.op_class_0::SimdFloatSqrt            0      0.00%     61.28% # Class of committed instruction
system.cpu_cluster.cpus.op_class_0::SimdReduceAdd            0      0.00%     61.28% # Class of committed instruction
system.cpu_cluster.cpus.op_class_0::SimdReduceAlu            0      0.00%     61.28% # Class of committed instruction
system.cpu_cluster.cpus.op_class_0::SimdReduceCmp            0      0.00%     61.28% # Class of committed instruction
system.cpu_cluster.cpus.op_class_0::SimdFloatReduceAdd            0      0.00%     61.28% # Class of committed instruction
system.cpu_cluster.cpus.op_class_0::SimdFloatReduceCmp            0      0.00%     61.28% # Class of committed instruction
system.cpu_cluster.cpus.op_class_0::SimdAes            0      0.00%     61.28% # Class of committed instruction
system.cpu_cluster.cpus.op_class_0::SimdAesMix            0      0.00%     61.28% # Class of committed instruction
system.cpu_cluster.cpus.op_class_0::SimdSha1Hash            0      0.00%     61.28% # Class of committed instruction
system.cpu_cluster.cpus.op_class_0::SimdSha1Hash2            0      0.00%     61.28% # Class of committed instruction
system.cpu_cluster.cpus.op_class_0::SimdSha256Hash            0      0.00%     61.28% # Class of committed instruction
system.cpu_cluster.cpus.op_class_0::SimdSha256Hash2            0      0.00%     61.28% # Class of committed instruction
system.cpu_cluster.cpus.op_class_0::SimdShaSigma2            0      0.00%     61.28% # Class of committed instruction
system.cpu_cluster.cpus.op_class_0::SimdShaSigma3            0      0.00%     61.28% # Class of committed instruction
system.cpu_cluster.cpus.op_class_0::SimdPredAlu            0      0.00%     61.28% # Class of committed instruction
system.cpu_cluster.cpus.op_class_0::MemRead    116001238     24.48%     85.76% # Class of committed instruction
system.cpu_cluster.cpus.op_class_0::MemWrite     67506661     14.24%    100.00% # Class of committed instruction
system.cpu_cluster.cpus.op_class_0::FloatMemRead            0      0.00%    100.00% # Class of committed instruction
system.cpu_cluster.cpus.op_class_0::FloatMemWrite            0      0.00%    100.00% # Class of committed instruction
system.cpu_cluster.cpus.op_class_0::IprAccess            0      0.00%    100.00% # Class of committed instruction
system.cpu_cluster.cpus.op_class_0::InstPrefetch            0      0.00%    100.00% # Class of committed instruction
system.cpu_cluster.cpus.op_class_0::total    473927285                       # Class of committed instruction
system.cpu_cluster.cpus.tickCycles          490706298                       # Number of cycles that the object actually ticked
system.cpu_cluster.cpus.workload.numSyscalls         4472                       # Number of system calls
system.cpu_cluster.toL2Bus.snoop_filter.hit_multi_requests           17                       # Number of requests hitting in the snoop filter with multiple (>1) holders of the requested data.
system.cpu_cluster.toL2Bus.snoop_filter.hit_multi_snoops            0                       # Number of snoops hitting in the snoop filter with multiple (>1) holders of the requested data.
system.cpu_cluster.toL2Bus.snoop_filter.hit_single_requests        90932                       # Number of requests hitting in the snoop filter with a single holder of the requested data.
system.cpu_cluster.toL2Bus.snoop_filter.hit_single_snoops            0                       # Number of snoops hitting in the snoop filter with a single holder of the requested data.
system.cpu_cluster.toL2Bus.snoop_filter.tot_requests       182887                       # Total number of requests made to the snoop filter.
system.cpu_cluster.toL2Bus.snoop_filter.tot_snoops            0                       # Total number of snoops made to the snoop filter.
system.membus.snoop_filter.hit_multi_requests            0                       # Number of requests hitting in the snoop filter with multiple (>1) holders of the requested data.
system.membus.snoop_filter.hit_multi_snoops            0                       # Number of snoops hitting in the snoop filter with multiple (>1) holders of the requested data.
system.membus.snoop_filter.hit_single_requests            0                       # Number of requests hitting in the snoop filter with a single holder of the requested data.
system.membus.snoop_filter.hit_single_snoops            0                       # Number of snoops hitting in the snoop filter with a single holder of the requested data.
system.membus.snoop_filter.tot_requests          5845                       # Total number of requests made to the snoop filter.
system.membus.snoop_filter.tot_snoops               0                       # Total number of snoops made to the snoop filter.
system.membus.pwrStateResidencyTicks::UNDEFINED 224285970090                       # Cumulative time (in ticks) in various power states
system.membus.trans_dist::ReadResp               2908                       # Transaction distribution
system.membus.trans_dist::ReadExReq              2926                       # Transaction distribution
system.membus.trans_dist::ReadExResp             2926                       # Transaction distribution
system.membus.trans_dist::ReadSharedReq          2908                       # Transaction distribution
system.membus.trans_dist::InvalidateReq            11                       # Transaction distribution
system.membus.pkt_count_system.cpu_cluster.l2.mem_side::system.mem_ctrls.port        11679                       # Packet count per connected master and slave (bytes)
system.membus.pkt_count_system.cpu_cluster.l2.mem_side::total        11679                       # Packet count per connected master and slave (bytes)
system.membus.pkt_count::total                  11679                       # Packet count per connected master and slave (bytes)
system.membus.pkt_size_system.cpu_cluster.l2.mem_side::system.mem_ctrls.port       373376                       # Cumulative packet size per connected master and slave (bytes)
system.membus.pkt_size_system.cpu_cluster.l2.mem_side::total       373376                       # Cumulative packet size per connected master and slave (bytes)
system.membus.pkt_size::total                  373376                       # Cumulative packet size per connected master and slave (bytes)
system.membus.snoops                                0                       # Total snoops (count)
system.membus.snoopTraffic                          0                       # Total snoop traffic (bytes)
system.membus.snoop_fanout::samples              5845                       # Request fanout histogram
system.membus.snoop_fanout::mean                    0                       # Request fanout histogram
system.membus.snoop_fanout::stdev                   0                       # Request fanout histogram
system.membus.snoop_fanout::underflows              0      0.00%      0.00% # Request fanout histogram
system.membus.snoop_fanout::0                    5845    100.00%    100.00% # Request fanout histogram
system.membus.snoop_fanout::1                       0      0.00%    100.00% # Request fanout histogram
system.membus.snoop_fanout::overflows               0      0.00%    100.00% # Request fanout histogram
system.membus.snoop_fanout::min_value               0                       # Request fanout histogram
system.membus.snoop_fanout::max_value               0                       # Request fanout histogram
system.membus.snoop_fanout::total                5845                       # Request fanout histogram
system.membus.reqLayer0.occupancy             8836343                       # Layer occupancy (ticks)
system.membus.reqLayer0.utilization               0.0                       # Layer utilization (%)
system.membus.badaddr_responder.pwrStateResidencyTicks::UNDEFINED 224285970090                       # Cumulative time (in ticks) in various power states
system.membus.respLayer1.occupancy           29499426                       # Layer occupancy (ticks)
system.membus.respLayer1.utilization              0.0                       # Layer utilization (%)
system.voltage_domain.voltage                       1                       # Voltage in Volts
system.clk_domain.clock                          1000                       # Clock period in ticks
system.cpu_cluster.toL2Bus.pwrStateResidencyTicks::UNDEFINED 224285970090                       # Cumulative time (in ticks) in various power states
system.cpu_cluster.toL2Bus.trans_dist::ReadResp        88003                       # Transaction distribution
system.cpu_cluster.toL2Bus.trans_dist::WritebackDirty        10107                       # Transaction distribution
system.cpu_cluster.toL2Bus.trans_dist::CleanEvict        80824                       # Transaction distribution
system.cpu_cluster.toL2Bus.trans_dist::ReadExReq         3941                       # Transaction distribution
system.cpu_cluster.toL2Bus.trans_dist::ReadExResp         3941                       # Transaction distribution
system.cpu_cluster.toL2Bus.trans_dist::ReadSharedReq        88004                       # Transaction distribution
system.cpu_cluster.toL2Bus.trans_dist::InvalidateReq           11                       # Transaction distribution
system.cpu_cluster.toL2Bus.trans_dist::InvalidateResp           11                       # Transaction distribution
system.cpu_cluster.toL2Bus.pkt_count_system.cpu_cluster.cpus.icache.mem_side::system.cpu_cluster.l2.cpu_side       241760                       # Packet count per connected master and slave (bytes)
system.cpu_cluster.toL2Bus.pkt_count_system.cpu_cluster.cpus.dcache.mem_side::system.cpu_cluster.l2.cpu_side        33082                       # Packet count per connected master and slave (bytes)
system.cpu_cluster.toL2Bus.pkt_count::total       274842                       # Packet count per connected master and slave (bytes)
system.cpu_cluster.toL2Bus.pkt_size_system.cpu_cluster.cpus.icache.mem_side::system.cpu_cluster.l2.cpu_side      5168448                       # Cumulative packet size per connected master and slave (bytes)
system.cpu_cluster.toL2Bus.pkt_size_system.cpu_cluster.cpus.dcache.mem_side::system.cpu_cluster.l2.cpu_side      1362816                       # Cumulative packet size per connected master and slave (bytes)
system.cpu_cluster.toL2Bus.pkt_size::total      6531264                       # Cumulative packet size per connected master and slave (bytes)
system.cpu_cluster.toL2Bus.snoops                   0                       # Total snoops (count)
system.cpu_cluster.toL2Bus.snoopTraffic             0                       # Total snoop traffic (bytes)
system.cpu_cluster.toL2Bus.snoop_fanout::samples        91956                       # Request fanout histogram
system.cpu_cluster.toL2Bus.snoop_fanout::mean     0.000196                       # Request fanout histogram
system.cpu_cluster.toL2Bus.snoop_fanout::stdev     0.013990                       # Request fanout histogram
system.cpu_cluster.toL2Bus.snoop_fanout::underflows            0      0.00%      0.00% # Request fanout histogram
system.cpu_cluster.toL2Bus.snoop_fanout::0        91938     99.98%     99.98% # Request fanout histogram
system.cpu_cluster.toL2Bus.snoop_fanout::1           18      0.02%    100.00% # Request fanout histogram
system.cpu_cluster.toL2Bus.snoop_fanout::2            0      0.00%    100.00% # Request fanout histogram
system.cpu_cluster.toL2Bus.snoop_fanout::3            0      0.00%    100.00% # Request fanout histogram
system.cpu_cluster.toL2Bus.snoop_fanout::4            0      0.00%    100.00% # Request fanout histogram
system.cpu_cluster.toL2Bus.snoop_fanout::overflows            0      0.00%    100.00% # Request fanout histogram
system.cpu_cluster.toL2Bus.snoop_fanout::min_value            0                       # Request fanout histogram
system.cpu_cluster.toL2Bus.snoop_fanout::max_value            1                       # Request fanout histogram
system.cpu_cluster.toL2Bus.snoop_fanout::total        91956                       # Request fanout histogram
system.cpu_cluster.toL2Bus.reqLayer0.occupancy     88129083                       # Layer occupancy (ticks)
system.cpu_cluster.toL2Bus.reqLayer0.utilization          0.0                       # Layer utilization (%)
system.cpu_cluster.toL2Bus.respLayer1.occupancy     10186083                       # Layer occupancy (ticks)
system.cpu_cluster.toL2Bus.respLayer1.utilization          0.0                       # Layer utilization (%)
system.cpu_cluster.toL2Bus.respLayer0.occupancy     73490232                       # Layer occupancy (ticks)
system.cpu_cluster.toL2Bus.respLayer0.utilization          0.0                       # Layer utilization (%)
system.cpu_cluster.voltage_domain.voltage            1                       # Voltage in Volts
system.cpu_cluster.l2.pwrStateResidencyTicks::UNDEFINED 224285970090                       # Cumulative time (in ticks) in various power states
system.cpu_cluster.l2.demand_hits::.cpu_cluster.cpus.inst        78927                       # number of demand (read+write) hits
system.cpu_cluster.l2.demand_hits::.cpu_cluster.cpus.data         6705                       # number of demand (read+write) hits
system.cpu_cluster.l2.demand_hits::.cpu_cluster.cpus.dcache.prefetcher          478                       # number of demand (read+write) hits
system.cpu_cluster.l2.demand_hits::total        86110                       # number of demand (read+write) hits
system.cpu_cluster.l2.overall_hits::.cpu_cluster.cpus.inst        78927                       # number of overall hits
system.cpu_cluster.l2.overall_hits::.cpu_cluster.cpus.data         6705                       # number of overall hits
system.cpu_cluster.l2.overall_hits::.cpu_cluster.cpus.dcache.prefetcher          478                       # number of overall hits
system.cpu_cluster.l2.overall_hits::total        86110                       # number of overall hits
system.cpu_cluster.l2.demand_misses::.cpu_cluster.cpus.inst         1831                       # number of demand (read+write) misses
system.cpu_cluster.l2.demand_misses::.cpu_cluster.cpus.data         3244                       # number of demand (read+write) misses
system.cpu_cluster.l2.demand_misses::.cpu_cluster.cpus.dcache.prefetcher          760                       # number of demand (read+write) misses
system.cpu_cluster.l2.demand_misses::total         5835                       # number of demand (read+write) misses
system.cpu_cluster.l2.overall_misses::.cpu_cluster.cpus.inst         1831                       # number of overall misses
system.cpu_cluster.l2.overall_misses::.cpu_cluster.cpus.data         3244                       # number of overall misses
system.cpu_cluster.l2.overall_misses::.cpu_cluster.cpus.dcache.prefetcher          760                       # number of overall misses
system.cpu_cluster.l2.overall_misses::total         5835                       # number of overall misses
system.cpu_cluster.l2.demand_miss_latency::.cpu_cluster.cpus.inst    138525205                       # number of demand (read+write) miss cycles
system.cpu_cluster.l2.demand_miss_latency::.cpu_cluster.cpus.data    242163285                       # number of demand (read+write) miss cycles
system.cpu_cluster.l2.demand_miss_latency::.cpu_cluster.cpus.dcache.prefetcher     56890796                       # number of demand (read+write) miss cycles
system.cpu_cluster.l2.demand_miss_latency::total    437579286                       # number of demand (read+write) miss cycles
system.cpu_cluster.l2.overall_miss_latency::.cpu_cluster.cpus.inst    138525205                       # number of overall miss cycles
system.cpu_cluster.l2.overall_miss_latency::.cpu_cluster.cpus.data    242163285                       # number of overall miss cycles
system.cpu_cluster.l2.overall_miss_latency::.cpu_cluster.cpus.dcache.prefetcher     56890796                       # number of overall miss cycles
system.cpu_cluster.l2.overall_miss_latency::total    437579286                       # number of overall miss cycles
system.cpu_cluster.l2.demand_accesses::.cpu_cluster.cpus.inst        80758                       # number of demand (read+write) accesses
system.cpu_cluster.l2.demand_accesses::.cpu_cluster.cpus.data         9949                       # number of demand (read+write) accesses
system.cpu_cluster.l2.demand_accesses::.cpu_cluster.cpus.dcache.prefetcher         1238                       # number of demand (read+write) accesses
system.cpu_cluster.l2.demand_accesses::total        91945                       # number of demand (read+write) accesses
system.cpu_cluster.l2.overall_accesses::.cpu_cluster.cpus.inst        80758                       # number of overall (read+write) accesses
system.cpu_cluster.l2.overall_accesses::.cpu_cluster.cpus.data         9949                       # number of overall (read+write) accesses
system.cpu_cluster.l2.overall_accesses::.cpu_cluster.cpus.dcache.prefetcher         1238                       # number of overall (read+write) accesses
system.cpu_cluster.l2.overall_accesses::total        91945                       # number of overall (read+write) accesses
system.cpu_cluster.l2.demand_miss_rate::.cpu_cluster.cpus.inst     0.022673                       # miss rate for demand accesses
system.cpu_cluster.l2.demand_miss_rate::.cpu_cluster.cpus.data     0.326063                       # miss rate for demand accesses
system.cpu_cluster.l2.demand_miss_rate::.cpu_cluster.cpus.dcache.prefetcher     0.613893                       # miss rate for demand accesses
system.cpu_cluster.l2.demand_miss_rate::total     0.063462                       # miss rate for demand accesses
system.cpu_cluster.l2.overall_miss_rate::.cpu_cluster.cpus.inst     0.022673                       # miss rate for overall accesses
system.cpu_cluster.l2.overall_miss_rate::.cpu_cluster.cpus.data     0.326063                       # miss rate for overall accesses
system.cpu_cluster.l2.overall_miss_rate::.cpu_cluster.cpus.dcache.prefetcher     0.613893                       # miss rate for overall accesses
system.cpu_cluster.l2.overall_miss_rate::total     0.063462                       # miss rate for overall accesses
system.cpu_cluster.l2.demand_avg_miss_latency::.cpu_cluster.cpus.inst 75655.491535                       # average overall miss latency
system.cpu_cluster.l2.demand_avg_miss_latency::.cpu_cluster.cpus.data 74649.594636                       # average overall miss latency
system.cpu_cluster.l2.demand_avg_miss_latency::.cpu_cluster.cpus.dcache.prefetcher 74856.310526                       # average overall miss latency
system.cpu_cluster.l2.demand_avg_miss_latency::total 74992.165553                       # average overall miss latency
system.cpu_cluster.l2.overall_avg_miss_latency::.cpu_cluster.cpus.inst 75655.491535                       # average overall miss latency
system.cpu_cluster.l2.overall_avg_miss_latency::.cpu_cluster.cpus.data 74649.594636                       # average overall miss latency
system.cpu_cluster.l2.overall_avg_miss_latency::.cpu_cluster.cpus.dcache.prefetcher 74856.310526                       # average overall miss latency
system.cpu_cluster.l2.overall_avg_miss_latency::total 74992.165553                       # average overall miss latency
system.cpu_cluster.l2.blocked_cycles::no_mshrs          164                       # number of cycles access was blocked
system.cpu_cluster.l2.blocked_cycles::no_targets            0                       # number of cycles access was blocked
system.cpu_cluster.l2.blocked::no_mshrs             3                       # number of cycles access was blocked
system.cpu_cluster.l2.blocked::no_targets            0                       # number of cycles access was blocked
system.cpu_cluster.l2.avg_blocked_cycles::no_mshrs    54.666667                       # average number of cycles each access was blocked
system.cpu_cluster.l2.avg_blocked_cycles::no_targets          nan                       # average number of cycles each access was blocked
system.cpu_cluster.l2.demand_mshr_misses::.cpu_cluster.cpus.inst         1831                       # number of demand (read+write) MSHR misses
system.cpu_cluster.l2.demand_mshr_misses::.cpu_cluster.cpus.data         3244                       # number of demand (read+write) MSHR misses
system.cpu_cluster.l2.demand_mshr_misses::.cpu_cluster.cpus.dcache.prefetcher          760                       # number of demand (read+write) MSHR misses
system.cpu_cluster.l2.demand_mshr_misses::total         5835                       # number of demand (read+write) MSHR misses
system.cpu_cluster.l2.overall_mshr_misses::.cpu_cluster.cpus.inst         1831                       # number of overall MSHR misses
system.cpu_cluster.l2.overall_mshr_misses::.cpu_cluster.cpus.data         3244                       # number of overall MSHR misses
system.cpu_cluster.l2.overall_mshr_misses::.cpu_cluster.cpus.dcache.prefetcher          760                       # number of overall MSHR misses
system.cpu_cluster.l2.overall_mshr_misses::total         5835                       # number of overall MSHR misses
system.cpu_cluster.l2.demand_mshr_miss_latency::.cpu_cluster.cpus.inst    133972165                       # number of demand (read+write) MSHR miss cycles
system.cpu_cluster.l2.demand_mshr_miss_latency::.cpu_cluster.cpus.data    234067415                       # number of demand (read+write) MSHR miss cycles
system.cpu_cluster.l2.demand_mshr_miss_latency::.cpu_cluster.cpus.dcache.prefetcher     54979551                       # number of demand (read+write) MSHR miss cycles
system.cpu_cluster.l2.demand_mshr_miss_latency::total    423019131                       # number of demand (read+write) MSHR miss cycles
system.cpu_cluster.l2.overall_mshr_miss_latency::.cpu_cluster.cpus.inst    133972165                       # number of overall MSHR miss cycles
system.cpu_cluster.l2.overall_mshr_miss_latency::.cpu_cluster.cpus.data    234067415                       # number of overall MSHR miss cycles
system.cpu_cluster.l2.overall_mshr_miss_latency::.cpu_cluster.cpus.dcache.prefetcher     54979551                       # number of overall MSHR miss cycles
system.cpu_cluster.l2.overall_mshr_miss_latency::total    423019131                       # number of overall MSHR miss cycles
system.cpu_cluster.l2.demand_mshr_miss_rate::.cpu_cluster.cpus.inst     0.022673                       # mshr miss rate for demand accesses
system.cpu_cluster.l2.demand_mshr_miss_rate::.cpu_cluster.cpus.data     0.326063                       # mshr miss rate for demand accesses
system.cpu_cluster.l2.demand_mshr_miss_rate::.cpu_cluster.cpus.dcache.prefetcher     0.613893                       # mshr miss rate for demand accesses
system.cpu_cluster.l2.demand_mshr_miss_rate::total     0.063462                       # mshr miss rate for demand accesses
system.cpu_cluster.l2.overall_mshr_miss_rate::.cpu_cluster.cpus.inst     0.022673                       # mshr miss rate for overall accesses
system.cpu_cluster.l2.overall_mshr_miss_rate::.cpu_cluster.cpus.data     0.326063                       # mshr miss rate for overall accesses
system.cpu_cluster.l2.overall_mshr_miss_rate::.cpu_cluster.cpus.dcache.prefetcher     0.613893                       # mshr miss rate for overall accesses
system.cpu_cluster.l2.overall_mshr_miss_rate::total     0.063462                       # mshr miss rate for overall accesses
system.cpu_cluster.l2.demand_avg_mshr_miss_latency::.cpu_cluster.cpus.inst 73168.850355                       # average overall mshr miss latency
system.cpu_cluster.l2.demand_avg_mshr_miss_latency::.cpu_cluster.cpus.data 72153.950370                       # average overall mshr miss latency
system.cpu_cluster.l2.demand_avg_mshr_miss_latency::.cpu_cluster.cpus.dcache.prefetcher 72341.514474                       # average overall mshr miss latency
system.cpu_cluster.l2.demand_avg_mshr_miss_latency::total 72496.851928                       # average overall mshr miss latency
system.cpu_cluster.l2.overall_avg_mshr_miss_latency::.cpu_cluster.cpus.inst 73168.850355                       # average overall mshr miss latency
system.cpu_cluster.l2.overall_avg_mshr_miss_latency::.cpu_cluster.cpus.data 72153.950370                       # average overall mshr miss latency
system.cpu_cluster.l2.overall_avg_mshr_miss_latency::.cpu_cluster.cpus.dcache.prefetcher 72341.514474                       # average overall mshr miss latency
system.cpu_cluster.l2.overall_avg_mshr_miss_latency::total 72496.851928                       # average overall mshr miss latency
system.cpu_cluster.l2.replacements                  0                       # number of replacements
system.cpu_cluster.l2.WritebackDirty_hits::.writebacks        10107                       # number of WritebackDirty hits
system.cpu_cluster.l2.WritebackDirty_hits::total        10107                       # number of WritebackDirty hits
system.cpu_cluster.l2.WritebackDirty_accesses::.writebacks        10107                       # number of WritebackDirty accesses(hits+misses)
system.cpu_cluster.l2.WritebackDirty_accesses::total        10107                       # number of WritebackDirty accesses(hits+misses)
system.cpu_cluster.l2.ReadExReq_hits::.cpu_cluster.cpus.data         1015                       # number of ReadExReq hits
system.cpu_cluster.l2.ReadExReq_hits::total         1015                       # number of ReadExReq hits
system.cpu_cluster.l2.ReadExReq_misses::.cpu_cluster.cpus.data         2926                       # number of ReadExReq misses
system.cpu_cluster.l2.ReadExReq_misses::total         2926                       # number of ReadExReq misses
system.cpu_cluster.l2.ReadExReq_miss_latency::.cpu_cluster.cpus.data    215276425                       # number of ReadExReq miss cycles
system.cpu_cluster.l2.ReadExReq_miss_latency::total    215276425                       # number of ReadExReq miss cycles
system.cpu_cluster.l2.ReadExReq_accesses::.cpu_cluster.cpus.data         3941                       # number of ReadExReq accesses(hits+misses)
system.cpu_cluster.l2.ReadExReq_accesses::total         3941                       # number of ReadExReq accesses(hits+misses)
system.cpu_cluster.l2.ReadExReq_miss_rate::.cpu_cluster.cpus.data     0.742451                       # miss rate for ReadExReq accesses
system.cpu_cluster.l2.ReadExReq_miss_rate::total     0.742451                       # miss rate for ReadExReq accesses
system.cpu_cluster.l2.ReadExReq_avg_miss_latency::.cpu_cluster.cpus.data 73573.624402                       # average ReadExReq miss latency
system.cpu_cluster.l2.ReadExReq_avg_miss_latency::total 73573.624402                       # average ReadExReq miss latency
system.cpu_cluster.l2.ReadExReq_mshr_misses::.cpu_cluster.cpus.data         2926                       # number of ReadExReq MSHR misses
system.cpu_cluster.l2.ReadExReq_mshr_misses::total         2926                       # number of ReadExReq MSHR misses
system.cpu_cluster.l2.ReadExReq_mshr_miss_latency::.cpu_cluster.cpus.data    207977000                       # number of ReadExReq MSHR miss cycles
system.cpu_cluster.l2.ReadExReq_mshr_miss_latency::total    207977000                       # number of ReadExReq MSHR miss cycles
system.cpu_cluster.l2.ReadExReq_mshr_miss_rate::.cpu_cluster.cpus.data     0.742451                       # mshr miss rate for ReadExReq accesses
system.cpu_cluster.l2.ReadExReq_mshr_miss_rate::total     0.742451                       # mshr miss rate for ReadExReq accesses
system.cpu_cluster.l2.ReadExReq_avg_mshr_miss_latency::.cpu_cluster.cpus.data 71078.947368                       # average ReadExReq mshr miss latency
system.cpu_cluster.l2.ReadExReq_avg_mshr_miss_latency::total 71078.947368                       # average ReadExReq mshr miss latency
system.cpu_cluster.l2.ReadSharedReq_hits::.cpu_cluster.cpus.inst        78927                       # number of ReadSharedReq hits
system.cpu_cluster.l2.ReadSharedReq_hits::.cpu_cluster.cpus.data         5690                       # number of ReadSharedReq hits
system.cpu_cluster.l2.ReadSharedReq_hits::.cpu_cluster.cpus.dcache.prefetcher          478                       # number of ReadSharedReq hits
system.cpu_cluster.l2.ReadSharedReq_hits::total        85095                       # number of ReadSharedReq hits
system.cpu_cluster.l2.ReadSharedReq_misses::.cpu_cluster.cpus.inst         1831                       # number of ReadSharedReq misses
system.cpu_cluster.l2.ReadSharedReq_misses::.cpu_cluster.cpus.data          318                       # number of ReadSharedReq misses
system.cpu_cluster.l2.ReadSharedReq_misses::.cpu_cluster.cpus.dcache.prefetcher          760                       # number of ReadSharedReq misses
system.cpu_cluster.l2.ReadSharedReq_misses::total         2909                       # number of ReadSharedReq misses
system.cpu_cluster.l2.ReadSharedReq_miss_latency::.cpu_cluster.cpus.inst    138525205                       # number of ReadSharedReq miss cycles
system.cpu_cluster.l2.ReadSharedReq_miss_latency::.cpu_cluster.cpus.data     26886860                       # number of ReadSharedReq miss cycles
system.cpu_cluster.l2.ReadSharedReq_miss_latency::.cpu_cluster.cpus.dcache.prefetcher     56890796                       # number of ReadSharedReq miss cycles
system.cpu_cluster.l2.ReadSharedReq_miss_latency::total    222302861                       # number of ReadSharedReq miss cycles
system.cpu_cluster.l2.ReadSharedReq_accesses::.cpu_cluster.cpus.inst        80758                       # number of ReadSharedReq accesses(hits+misses)
system.cpu_cluster.l2.ReadSharedReq_accesses::.cpu_cluster.cpus.data         6008                       # number of ReadSharedReq accesses(hits+misses)
system.cpu_cluster.l2.ReadSharedReq_accesses::.cpu_cluster.cpus.dcache.prefetcher         1238                       # number of ReadSharedReq accesses(hits+misses)
system.cpu_cluster.l2.ReadSharedReq_accesses::total        88004                       # number of ReadSharedReq accesses(hits+misses)
system.cpu_cluster.l2.ReadSharedReq_miss_rate::.cpu_cluster.cpus.inst     0.022673                       # miss rate for ReadSharedReq accesses
system.cpu_cluster.l2.ReadSharedReq_miss_rate::.cpu_cluster.cpus.data     0.052929                       # miss rate for ReadSharedReq accesses
system.cpu_cluster.l2.ReadSharedReq_miss_rate::.cpu_cluster.cpus.dcache.prefetcher     0.613893                       # miss rate for ReadSharedReq accesses
system.cpu_cluster.l2.ReadSharedReq_miss_rate::total     0.033055                       # miss rate for ReadSharedReq accesses
system.cpu_cluster.l2.ReadSharedReq_avg_miss_latency::.cpu_cluster.cpus.inst 75655.491535                       # average ReadSharedReq miss latency
system.cpu_cluster.l2.ReadSharedReq_avg_miss_latency::.cpu_cluster.cpus.data 84549.874214                       # average ReadSharedReq miss latency
system.cpu_cluster.l2.ReadSharedReq_avg_miss_latency::.cpu_cluster.cpus.dcache.prefetcher 74856.310526                       # average ReadSharedReq miss latency
system.cpu_cluster.l2.ReadSharedReq_avg_miss_latency::total 76418.996562                       # average ReadSharedReq miss latency
system.cpu_cluster.l2.ReadSharedReq_mshr_misses::.cpu_cluster.cpus.inst         1831                       # number of ReadSharedReq MSHR misses
system.cpu_cluster.l2.ReadSharedReq_mshr_misses::.cpu_cluster.cpus.data          318                       # number of ReadSharedReq MSHR misses
system.cpu_cluster.l2.ReadSharedReq_mshr_misses::.cpu_cluster.cpus.dcache.prefetcher          760                       # number of ReadSharedReq MSHR misses
system.cpu_cluster.l2.ReadSharedReq_mshr_misses::total         2909                       # number of ReadSharedReq MSHR misses
system.cpu_cluster.l2.ReadSharedReq_mshr_miss_latency::.cpu_cluster.cpus.inst    133972165                       # number of ReadSharedReq MSHR miss cycles
system.cpu_cluster.l2.ReadSharedReq_mshr_miss_latency::.cpu_cluster.cpus.data     26090415                       # number of ReadSharedReq MSHR miss cycles
system.cpu_cluster.l2.ReadSharedReq_mshr_miss_latency::.cpu_cluster.cpus.dcache.prefetcher     54979551                       # number of ReadSharedReq MSHR miss cycles
system.cpu_cluster.l2.ReadSharedReq_mshr_miss_latency::total    215042131                       # number of ReadSharedReq MSHR miss cycles
system.cpu_cluster.l2.ReadSharedReq_mshr_miss_rate::.cpu_cluster.cpus.inst     0.022673                       # mshr miss rate for ReadSharedReq accesses
system.cpu_cluster.l2.ReadSharedReq_mshr_miss_rate::.cpu_cluster.cpus.data     0.052929                       # mshr miss rate for ReadSharedReq accesses
system.cpu_cluster.l2.ReadSharedReq_mshr_miss_rate::.cpu_cluster.cpus.dcache.prefetcher     0.613893                       # mshr miss rate for ReadSharedReq accesses
system.cpu_cluster.l2.ReadSharedReq_mshr_miss_rate::total     0.033055                       # mshr miss rate for ReadSharedReq accesses
system.cpu_cluster.l2.ReadSharedReq_avg_mshr_miss_latency::.cpu_cluster.cpus.inst 73168.850355                       # average ReadSharedReq mshr miss latency
system.cpu_cluster.l2.ReadSharedReq_avg_mshr_miss_latency::.cpu_cluster.cpus.data 82045.330189                       # average ReadSharedReq mshr miss latency
system.cpu_cluster.l2.ReadSharedReq_avg_mshr_miss_latency::.cpu_cluster.cpus.dcache.prefetcher 72341.514474                       # average ReadSharedReq mshr miss latency
system.cpu_cluster.l2.ReadSharedReq_avg_mshr_miss_latency::total 73923.042626                       # average ReadSharedReq mshr miss latency
system.cpu_cluster.l2.InvalidateReq_misses::.cpu_cluster.cpus.data           11                       # number of InvalidateReq misses
system.cpu_cluster.l2.InvalidateReq_misses::total           11                       # number of InvalidateReq misses
system.cpu_cluster.l2.InvalidateReq_accesses::.cpu_cluster.cpus.data           11                       # number of InvalidateReq accesses(hits+misses)
system.cpu_cluster.l2.InvalidateReq_accesses::total           11                       # number of InvalidateReq accesses(hits+misses)
system.cpu_cluster.l2.InvalidateReq_miss_rate::.cpu_cluster.cpus.data            1                       # miss rate for InvalidateReq accesses
system.cpu_cluster.l2.InvalidateReq_miss_rate::total            1                       # miss rate for InvalidateReq accesses
system.cpu_cluster.l2.InvalidateReq_mshr_misses::.cpu_cluster.cpus.data           11                       # number of InvalidateReq MSHR misses
system.cpu_cluster.l2.InvalidateReq_mshr_misses::total           11                       # number of InvalidateReq MSHR misses
system.cpu_cluster.l2.InvalidateReq_mshr_miss_latency::.cpu_cluster.cpus.data       166375                       # number of InvalidateReq MSHR miss cycles
system.cpu_cluster.l2.InvalidateReq_mshr_miss_latency::total       166375                       # number of InvalidateReq MSHR miss cycles
system.cpu_cluster.l2.InvalidateReq_mshr_miss_rate::.cpu_cluster.cpus.data            1                       # mshr miss rate for InvalidateReq accesses
system.cpu_cluster.l2.InvalidateReq_mshr_miss_rate::total            1                       # mshr miss rate for InvalidateReq accesses
system.cpu_cluster.l2.InvalidateReq_avg_mshr_miss_latency::.cpu_cluster.cpus.data        15125                       # average InvalidateReq mshr miss latency
system.cpu_cluster.l2.InvalidateReq_avg_mshr_miss_latency::total        15125                       # average InvalidateReq mshr miss latency
system.cpu_cluster.l2.tags.pwrStateResidencyTicks::UNDEFINED 224285970090                       # Cumulative time (in ticks) in various power states
system.cpu_cluster.l2.tags.tagsinuse      4462.201952                       # Cycle average of tags in use
system.cpu_cluster.l2.tags.total_refs          182858                       # Total number of references to valid blocks.
system.cpu_cluster.l2.tags.sampled_refs          5845                       # Sample count of references to valid blocks.
system.cpu_cluster.l2.tags.avg_refs         31.284517                       # Average number of references to valid blocks.
system.cpu_cluster.l2.tags.warmup_cycle         92000                       # Cycle when the warmup percentage was hit.
system.cpu_cluster.l2.tags.occ_blocks::.writebacks    10.978220                       # Average occupied blocks per requestor
system.cpu_cluster.l2.tags.occ_blocks::.cpu_cluster.cpus.inst  1344.102667                       # Average occupied blocks per requestor
system.cpu_cluster.l2.tags.occ_blocks::.cpu_cluster.cpus.data  2446.000641                       # Average occupied blocks per requestor
system.cpu_cluster.l2.tags.occ_blocks::.cpu_cluster.cpus.dcache.prefetcher   661.120423                       # Average occupied blocks per requestor
system.cpu_cluster.l2.tags.occ_percent::.writebacks     0.000670                       # Average percentage of cache occupancy
system.cpu_cluster.l2.tags.occ_percent::.cpu_cluster.cpus.inst     0.082038                       # Average percentage of cache occupancy
system.cpu_cluster.l2.tags.occ_percent::.cpu_cluster.cpus.data     0.149292                       # Average percentage of cache occupancy
system.cpu_cluster.l2.tags.occ_percent::.cpu_cluster.cpus.dcache.prefetcher     0.040352                       # Average percentage of cache occupancy
system.cpu_cluster.l2.tags.occ_percent::total     0.272351                       # Average percentage of cache occupancy
system.cpu_cluster.l2.tags.occ_task_id_blocks::1022          760                       # Occupied blocks per task id
system.cpu_cluster.l2.tags.occ_task_id_blocks::1024         5085                       # Occupied blocks per task id
system.cpu_cluster.l2.tags.age_task_id_blocks_1022::0            1                       # Occupied blocks per task id
system.cpu_cluster.l2.tags.age_task_id_blocks_1022::1            4                       # Occupied blocks per task id
system.cpu_cluster.l2.tags.age_task_id_blocks_1022::2           27                       # Occupied blocks per task id
system.cpu_cluster.l2.tags.age_task_id_blocks_1022::3           61                       # Occupied blocks per task id
system.cpu_cluster.l2.tags.age_task_id_blocks_1022::4          667                       # Occupied blocks per task id
system.cpu_cluster.l2.tags.age_task_id_blocks_1024::0          109                       # Occupied blocks per task id
system.cpu_cluster.l2.tags.age_task_id_blocks_1024::1          715                       # Occupied blocks per task id
system.cpu_cluster.l2.tags.age_task_id_blocks_1024::2          163                       # Occupied blocks per task id
system.cpu_cluster.l2.tags.age_task_id_blocks_1024::3          282                       # Occupied blocks per task id
system.cpu_cluster.l2.tags.age_task_id_blocks_1024::4         3816                       # Occupied blocks per task id
system.cpu_cluster.l2.tags.occ_task_id_percent::1022     0.046387                       # Percentage of cache occupancy per task id
system.cpu_cluster.l2.tags.occ_task_id_percent::1024     0.310364                       # Percentage of cache occupancy per task id
system.cpu_cluster.l2.tags.tag_accesses       2931765                       # Number of tag accesses
system.cpu_cluster.l2.tags.data_accesses      2931765                       # Number of data accesses
system.cpu_cluster.clk_domain.clock               455                       # Clock period in ticks
system.cpu_cluster.cpus.pwrStateResidencyTicks::ON 224285970090                       # Cumulative time (in ticks) in various power states
system.cpu_cluster.cpus.icache.pwrStateResidencyTicks::UNDEFINED 224285970090                       # Cumulative time (in ticks) in various power states
system.cpu_cluster.cpus.icache.demand_hits::.cpu_cluster.cpus.inst     76614072                       # number of demand (read+write) hits
system.cpu_cluster.cpus.icache.demand_hits::total     76614072                       # number of demand (read+write) hits
system.cpu_cluster.cpus.icache.overall_hits::.cpu_cluster.cpus.inst     76614072                       # number of overall hits
system.cpu_cluster.cpus.icache.overall_hits::total     76614072                       # number of overall hits
system.cpu_cluster.cpus.icache.demand_misses::.cpu_cluster.cpus.inst        80758                       # number of demand (read+write) misses
system.cpu_cluster.cpus.icache.demand_misses::total        80758                       # number of demand (read+write) misses
system.cpu_cluster.cpus.icache.overall_misses::.cpu_cluster.cpus.inst        80758                       # number of overall misses
system.cpu_cluster.cpus.icache.overall_misses::total        80758                       # number of overall misses
system.cpu_cluster.cpus.icache.demand_miss_latency::.cpu_cluster.cpus.inst    751538515                       # number of demand (read+write) miss cycles
system.cpu_cluster.cpus.icache.demand_miss_latency::total    751538515                       # number of demand (read+write) miss cycles
system.cpu_cluster.cpus.icache.overall_miss_latency::.cpu_cluster.cpus.inst    751538515                       # number of overall miss cycles
system.cpu_cluster.cpus.icache.overall_miss_latency::total    751538515                       # number of overall miss cycles
system.cpu_cluster.cpus.icache.demand_accesses::.cpu_cluster.cpus.inst     76694830                       # number of demand (read+write) accesses
system.cpu_cluster.cpus.icache.demand_accesses::total     76694830                       # number of demand (read+write) accesses
system.cpu_cluster.cpus.icache.overall_accesses::.cpu_cluster.cpus.inst     76694830                       # number of overall (read+write) accesses
system.cpu_cluster.cpus.icache.overall_accesses::total     76694830                       # number of overall (read+write) accesses
system.cpu_cluster.cpus.icache.demand_miss_rate::.cpu_cluster.cpus.inst     0.001053                       # miss rate for demand accesses
system.cpu_cluster.cpus.icache.demand_miss_rate::total     0.001053                       # miss rate for demand accesses
system.cpu_cluster.cpus.icache.overall_miss_rate::.cpu_cluster.cpus.inst     0.001053                       # miss rate for overall accesses
system.cpu_cluster.cpus.icache.overall_miss_rate::total     0.001053                       # miss rate for overall accesses
system.cpu_cluster.cpus.icache.demand_avg_miss_latency::.cpu_cluster.cpus.inst  9306.056552                       # average overall miss latency
system.cpu_cluster.cpus.icache.demand_avg_miss_latency::total  9306.056552                       # average overall miss latency
system.cpu_cluster.cpus.icache.overall_avg_miss_latency::.cpu_cluster.cpus.inst  9306.056552                       # average overall miss latency
system.cpu_cluster.cpus.icache.overall_avg_miss_latency::total  9306.056552                       # average overall miss latency
system.cpu_cluster.cpus.icache.blocked_cycles::no_mshrs            0                       # number of cycles access was blocked
system.cpu_cluster.cpus.icache.blocked_cycles::no_targets            0                       # number of cycles access was blocked
system.cpu_cluster.cpus.icache.blocked::no_mshrs            0                       # number of cycles access was blocked
system.cpu_cluster.cpus.icache.blocked::no_targets            0                       # number of cycles access was blocked
system.cpu_cluster.cpus.icache.avg_blocked_cycles::no_mshrs          nan                       # average number of cycles each access was blocked
system.cpu_cluster.cpus.icache.avg_blocked_cycles::no_targets          nan                       # average number of cycles each access was blocked
system.cpu_cluster.cpus.icache.demand_mshr_misses::.cpu_cluster.cpus.inst        80758                       # number of demand (read+write) MSHR misses
system.cpu_cluster.cpus.icache.demand_mshr_misses::total        80758                       # number of demand (read+write) MSHR misses
system.cpu_cluster.cpus.icache.overall_mshr_misses::.cpu_cluster.cpus.inst        80758                       # number of overall MSHR misses
system.cpu_cluster.cpus.icache.overall_mshr_misses::total        80758                       # number of overall MSHR misses
system.cpu_cluster.cpus.icache.demand_mshr_miss_latency::.cpu_cluster.cpus.inst    714794080                       # number of demand (read+write) MSHR miss cycles
system.cpu_cluster.cpus.icache.demand_mshr_miss_latency::total    714794080                       # number of demand (read+write) MSHR miss cycles
system.cpu_cluster.cpus.icache.overall_mshr_miss_latency::.cpu_cluster.cpus.inst    714794080                       # number of overall MSHR miss cycles
system.cpu_cluster.cpus.icache.overall_mshr_miss_latency::total    714794080                       # number of overall MSHR miss cycles
system.cpu_cluster.cpus.icache.demand_mshr_miss_rate::.cpu_cluster.cpus.inst     0.001053                       # mshr miss rate for demand accesses
system.cpu_cluster.cpus.icache.demand_mshr_miss_rate::total     0.001053                       # mshr miss rate for demand accesses
system.cpu_cluster.cpus.icache.overall_mshr_miss_rate::.cpu_cluster.cpus.inst     0.001053                       # mshr miss rate for overall accesses
system.cpu_cluster.cpus.icache.overall_mshr_miss_rate::total     0.001053                       # mshr miss rate for overall accesses
system.cpu_cluster.cpus.icache.demand_avg_mshr_miss_latency::.cpu_cluster.cpus.inst  8851.062186                       # average overall mshr miss latency
system.cpu_cluster.cpus.icache.demand_avg_mshr_miss_latency::total  8851.062186                       # average overall mshr miss latency
system.cpu_cluster.cpus.icache.overall_avg_mshr_miss_latency::.cpu_cluster.cpus.inst  8851.062186                       # average overall mshr miss latency
system.cpu_cluster.cpus.icache.overall_avg_mshr_miss_latency::total  8851.062186                       # average overall mshr miss latency
system.cpu_cluster.cpus.icache.replacements        80245                       # number of replacements
system.cpu_cluster.cpus.icache.ReadReq_hits::.cpu_cluster.cpus.inst     76614072                       # number of ReadReq hits
system.cpu_cluster.cpus.icache.ReadReq_hits::total     76614072                       # number of ReadReq hits
system.cpu_cluster.cpus.icache.ReadReq_misses::.cpu_cluster.cpus.inst        80758                       # number of ReadReq misses
system.cpu_cluster.cpus.icache.ReadReq_misses::total        80758                       # number of ReadReq misses
system.cpu_cluster.cpus.icache.ReadReq_miss_latency::.cpu_cluster.cpus.inst    751538515                       # number of ReadReq miss cycles
system.cpu_cluster.cpus.icache.ReadReq_miss_latency::total    751538515                       # number of ReadReq miss cycles
system.cpu_cluster.cpus.icache.ReadReq_accesses::.cpu_cluster.cpus.inst     76694830                       # number of ReadReq accesses(hits+misses)
system.cpu_cluster.cpus.icache.ReadReq_accesses::total     76694830                       # number of ReadReq accesses(hits+misses)
system.cpu_cluster.cpus.icache.ReadReq_miss_rate::.cpu_cluster.cpus.inst     0.001053                       # miss rate for ReadReq accesses
system.cpu_cluster.cpus.icache.ReadReq_miss_rate::total     0.001053                       # miss rate for ReadReq accesses
system.cpu_cluster.cpus.icache.ReadReq_avg_miss_latency::.cpu_cluster.cpus.inst  9306.056552                       # average ReadReq miss latency
system.cpu_cluster.cpus.icache.ReadReq_avg_miss_latency::total  9306.056552                       # average ReadReq miss latency
system.cpu_cluster.cpus.icache.ReadReq_mshr_misses::.cpu_cluster.cpus.inst        80758                       # number of ReadReq MSHR misses
system.cpu_cluster.cpus.icache.ReadReq_mshr_misses::total        80758                       # number of ReadReq MSHR misses
system.cpu_cluster.cpus.icache.ReadReq_mshr_miss_latency::.cpu_cluster.cpus.inst    714794080                       # number of ReadReq MSHR miss cycles
system.cpu_cluster.cpus.icache.ReadReq_mshr_miss_latency::total    714794080                       # number of ReadReq MSHR miss cycles
system.cpu_cluster.cpus.icache.ReadReq_mshr_miss_rate::.cpu_cluster.cpus.inst     0.001053                       # mshr miss rate for ReadReq accesses
system.cpu_cluster.cpus.icache.ReadReq_mshr_miss_rate::total     0.001053                       # mshr miss rate for ReadReq accesses
system.cpu_cluster.cpus.icache.ReadReq_avg_mshr_miss_latency::.cpu_cluster.cpus.inst  8851.062186                       # average ReadReq mshr miss latency
system.cpu_cluster.cpus.icache.ReadReq_avg_mshr_miss_latency::total  8851.062186                       # average ReadReq mshr miss latency
system.cpu_cluster.cpus.icache.tags.pwrStateResidencyTicks::UNDEFINED 224285970090                       # Cumulative time (in ticks) in various power states
system.cpu_cluster.cpus.icache.tags.tagsinuse   510.908661                       # Cycle average of tags in use
system.cpu_cluster.cpus.icache.tags.total_refs     76694829                       # Total number of references to valid blocks.
system.cpu_cluster.cpus.icache.tags.sampled_refs        80757                       # Sample count of references to valid blocks.
system.cpu_cluster.cpus.icache.tags.avg_refs   949.698837                       # Average number of references to valid blocks.
system.cpu_cluster.cpus.icache.tags.warmup_cycle        95095                       # Cycle when the warmup percentage was hit.
system.cpu_cluster.cpus.icache.tags.occ_blocks::.cpu_cluster.cpus.inst   510.908661                       # Average occupied blocks per requestor
system.cpu_cluster.cpus.icache.tags.occ_percent::.cpu_cluster.cpus.inst     0.997868                       # Average percentage of cache occupancy
system.cpu_cluster.cpus.icache.tags.occ_percent::total     0.997868                       # Average percentage of cache occupancy
system.cpu_cluster.cpus.icache.tags.occ_task_id_blocks::1024          512                       # Occupied blocks per task id
system.cpu_cluster.cpus.icache.tags.age_task_id_blocks_1024::0          136                       # Occupied blocks per task id
system.cpu_cluster.cpus.icache.tags.age_task_id_blocks_1024::1          223                       # Occupied blocks per task id
system.cpu_cluster.cpus.icache.tags.age_task_id_blocks_1024::2            4                       # Occupied blocks per task id
system.cpu_cluster.cpus.icache.tags.age_task_id_blocks_1024::3           40                       # Occupied blocks per task id
system.cpu_cluster.cpus.icache.tags.age_task_id_blocks_1024::4          109                       # Occupied blocks per task id
system.cpu_cluster.cpus.icache.tags.occ_task_id_percent::1024            1                       # Percentage of cache occupancy per task id
system.cpu_cluster.cpus.icache.tags.tag_accesses    153470417                       # Number of tag accesses
system.cpu_cluster.cpus.icache.tags.data_accesses    153470417                       # Number of data accesses
system.cpu_cluster.cpus.dtb.walker.pwrStateResidencyTicks::UNDEFINED 224285970090                       # Cumulative time (in ticks) in various power states
system.cpu_cluster.cpus.dtb.stage2_mmu.stage2_tlb.walker.pwrStateResidencyTicks::UNDEFINED 224285970090                       # Cumulative time (in ticks) in various power states
system.cpu_cluster.cpus.itb_walker_cache.pwrStateResidencyTicks::UNDEFINED 224285970090                       # Cumulative time (in ticks) in various power states
system.cpu_cluster.cpus.itb_walker_cache.blocked_cycles::no_mshrs            0                       # number of cycles access was blocked
system.cpu_cluster.cpus.itb_walker_cache.blocked_cycles::no_targets            0                       # number of cycles access was blocked
system.cpu_cluster.cpus.itb_walker_cache.blocked::no_mshrs            0                       # number of cycles access was blocked
system.cpu_cluster.cpus.itb_walker_cache.blocked::no_targets            0                       # number of cycles access was blocked
system.cpu_cluster.cpus.itb_walker_cache.avg_blocked_cycles::no_mshrs          nan                       # average number of cycles each access was blocked
system.cpu_cluster.cpus.itb_walker_cache.avg_blocked_cycles::no_targets          nan                       # average number of cycles each access was blocked
system.cpu_cluster.cpus.itb_walker_cache.replacements            0                       # number of replacements
system.cpu_cluster.cpus.itb_walker_cache.tags.pwrStateResidencyTicks::UNDEFINED 224285970090                       # Cumulative time (in ticks) in various power states
system.cpu_cluster.cpus.itb_walker_cache.tags.tagsinuse            0                       # Cycle average of tags in use
system.cpu_cluster.cpus.itb_walker_cache.tags.total_refs            0                       # Total number of references to valid blocks.
system.cpu_cluster.cpus.itb_walker_cache.tags.sampled_refs            0                       # Sample count of references to valid blocks.
system.cpu_cluster.cpus.itb_walker_cache.tags.avg_refs          nan                       # Average number of references to valid blocks.
system.cpu_cluster.cpus.itb_walker_cache.tags.warmup_cycle            0                       # Cycle when the warmup percentage was hit.
system.cpu_cluster.cpus.itb_walker_cache.tags.tag_accesses            0                       # Number of tag accesses
system.cpu_cluster.cpus.itb_walker_cache.tags.data_accesses            0                       # Number of data accesses
system.cpu_cluster.cpus.dtb_walker_cache.pwrStateResidencyTicks::UNDEFINED 224285970090                       # Cumulative time (in ticks) in various power states
system.cpu_cluster.cpus.dtb_walker_cache.blocked_cycles::no_mshrs            0                       # number of cycles access was blocked
system.cpu_cluster.cpus.dtb_walker_cache.blocked_cycles::no_targets            0                       # number of cycles access was blocked
system.cpu_cluster.cpus.dtb_walker_cache.blocked::no_mshrs            0                       # number of cycles access was blocked
system.cpu_cluster.cpus.dtb_walker_cache.blocked::no_targets            0                       # number of cycles access was blocked
system.cpu_cluster.cpus.dtb_walker_cache.avg_blocked_cycles::no_mshrs          nan                       # average number of cycles each access was blocked
system.cpu_cluster.cpus.dtb_walker_cache.avg_blocked_cycles::no_targets          nan                       # average number of cycles each access was blocked
system.cpu_cluster.cpus.dtb_walker_cache.replacements            0                       # number of replacements
system.cpu_cluster.cpus.dtb_walker_cache.tags.pwrStateResidencyTicks::UNDEFINED 224285970090                       # Cumulative time (in ticks) in various power states
system.cpu_cluster.cpus.dtb_walker_cache.tags.tagsinuse            0                       # Cycle average of tags in use
system.cpu_cluster.cpus.dtb_walker_cache.tags.total_refs            0                       # Total number of references to valid blocks.
[...]
system.mem_ctrls.rdQLenPdf::0                    4857                       # What read queue length does an incoming req see
system.mem_ctrls.rdQLenPdf::1                    4966                       # What read queue length does an incoming req see
system.mem_ctrls.rdQLenPdf::2                     847                       # What read queue length does an incoming req see
system.mem_ctrls.rdQLenPdf::3                     796                       # What read queue length does an incoming req see
system.mem_ctrls.rdQLenPdf::4                     129                       # What read queue length does an incoming req see
system.mem_ctrls.rdQLenPdf::5                      72                       # What read queue length does an incoming req see
system.mem_ctrls.rdQLenPdf::6                       1                       # What read queue length does an incoming req see
system.mem_ctrls.rdQLenPdf::7                       0                       # What read queue length does an incoming req see
system.mem_ctrls.rdQLenPdf::8                       0                       # What read queue length does an incoming req see
system.mem_ctrls.rdQLenPdf::9                       0                       # What read queue length does an incoming req see
system.mem_ctrls.rdQLenPdf::10                      0                       # What read queue length does an incoming req see
system.mem_ctrls.rdQLenPdf::11                      0                       # What read queue length does an incoming req see
system.mem_ctrls.rdQLenPdf::12                      0                       # What read queue length does an incoming req see
system.mem_ctrls.rdQLenPdf::13                      0                       # What read queue length does an incoming req see
system.mem_ctrls.rdQLenPdf::14                      0                       # What read queue length does an incoming req see
system.mem_ctrls.rdQLenPdf::15                      0                       # What read queue length does an incoming req see
system.mem_ctrls.rdQLenPdf::16                      0                       # What read queue length does an incoming req see
system.mem_ctrls.rdQLenPdf::17                      0                       # What read queue length does an incoming req see
system.mem_ctrls.rdQLenPdf::18                      0                       # What read queue length does an incoming req see
system.mem_ctrls.rdQLenPdf::19                      0                       # What read queue length does an incoming req see
system.mem_ctrls.rdQLenPdf::20                      0                       # What read queue length does an incoming req see
system.mem_ctrls.rdQLenPdf::21                      0                       # What read queue length does an incoming req see
system.mem_ctrls.rdQLenPdf::22                      0                       # What read queue length does an incoming req see
system.mem_ctrls.rdQLenPdf::23                      0                       # What read queue length does an incoming req see
system.mem_ctrls.rdQLenPdf::24                      0                       # What read queue length does an incoming req see
system.mem_ctrls.rdQLenPdf::25                      0                       # What read queue length does an incoming req see
system.mem_ctrls.rdQLenPdf::26                      0                       # What read queue length does an incoming req see
system.mem_ctrls.rdQLenPdf::27                      0                       # What read queue length does an incoming req see
system.mem_ctrls.rdQLenPdf::28                      0                       # What read queue length does an incoming req see
system.mem_ctrls.rdQLenPdf::29                      0                       # What read queue length does an incoming req see
system.mem_ctrls.rdQLenPdf::30                      0                       # What read queue length does an incoming req see
system.mem_ctrls.rdQLenPdf::31                      0                       # What read queue length does an incoming req see
system.mem_ctrls.wrQLenPdf::0                       0                       # What write queue length does an incoming req see
system.mem_ctrls.wrQLenPdf::1                       0                       # What write queue length does an incoming req see
system.mem_ctrls.wrQLenPdf::2                       0                       # What write queue length does an incoming req see
system.mem_ctrls.wrQLenPdf::3                       0                       # What write queue length does an incoming req see
system.mem_ctrls.wrQLenPdf::4                       0                       # What write queue length does an incoming req see
system.mem_ctrls.wrQLenPdf::5                       0                       # What write queue length does an incoming req see
system.mem_ctrls.wrQLenPdf::6                       0                       # What write queue length does an incoming req see
system.mem_ctrls.wrQLenPdf::7                       0                       # What write queue length does an incoming req see
system.mem_ctrls.wrQLenPdf::8                       0                       # What write queue length does an incoming req see
system.mem_ctrls.wrQLenPdf::9                       0                       # What write queue length does an incoming req see
system.mem_ctrls.wrQLenPdf::10                      0                       # What write queue length does an incoming req see
system.mem_ctrls.wrQLenPdf::11                      0                       # What write queue length does an incoming req see
system.mem_ctrls.wrQLenPdf::12                      0                       # What write queue length does an incoming req see
system.mem_ctrls.wrQLenPdf::13                      0                       # What write queue length does an incoming req see
system.mem_ctrls.wrQLenPdf::14                      0                       # What write queue length does an incoming req see
system.mem_ctrls.wrQLenPdf::15                      0                       # What write queue length does an incoming req see
system.mem_ctrls.wrQLenPdf::16                      0                       # What write queue length does an incoming req see
system.mem_ctrls.wrQLenPdf::17                      0                       # What write queue length does an incoming req see
system.mem_ctrls.wrQLenPdf::18                      0                       # What write queue length does an incoming req see
system.mem_ctrls.wrQLenPdf::19                      0                       # What write queue length does an incoming req see
system.mem_ctrls.wrQLenPdf::20                      0                       # What write queue length does an incoming req see
system.mem_ctrls.wrQLenPdf::21                      0                       # What write queue length does an incoming req see
system.mem_ctrls.wrQLenPdf::22                      0                       # What write queue length does an incoming req see
system.mem_ctrls.wrQLenPdf::23                      0                       # What write queue length does an incoming req see
system.mem_ctrls.wrQLenPdf::24                      0                       # What write queue length does an incoming req see
system.mem_ctrls.wrQLenPdf::25                      0                       # What write queue length does an incoming req see
system.mem_ctrls.wrQLenPdf::26                      0                       # What write queue length does an incoming req see
system.mem_ctrls.wrQLenPdf::27                      0                       # What write queue length does an incoming req see
system.mem_ctrls.wrQLenPdf::28                      0                       # What write queue length does an incoming req see
system.mem_ctrls.wrQLenPdf::29                      0                       # What write queue length does an incoming req see
system.mem_ctrls.wrQLenPdf::30                      0                       # What write queue length does an incoming req see
system.mem_ctrls.wrQLenPdf::31                      0                       # What write queue length does an incoming req see
system.mem_ctrls.wrQLenPdf::32                      0                       # What write queue length does an incoming req see
system.mem_ctrls.wrQLenPdf::33                      0                       # What write queue length does an incoming req see
system.mem_ctrls.wrQLenPdf::34                      0                       # What write queue length does an incoming req see
system.mem_ctrls.wrQLenPdf::35                      0                       # What write queue length does an incoming req see
system.mem_ctrls.wrQLenPdf::36                      0                       # What write queue length does an incoming req see
system.mem_ctrls.wrQLenPdf::37                      0                       # What write queue length does an incoming req see
system.mem_ctrls.wrQLenPdf::38                      0                       # What write queue length does an incoming req see
system.mem_ctrls.wrQLenPdf::39                      0                       # What write queue length does an incoming req see
system.mem_ctrls.wrQLenPdf::40                      0                       # What write queue length does an incoming req see
system.mem_ctrls.wrQLenPdf::41                      0                       # What write queue length does an incoming req see
system.mem_ctrls.wrQLenPdf::42                      0                       # What write queue length does an incoming req see
system.mem_ctrls.wrQLenPdf::43                      0                       # What write queue length does an incoming req see
system.mem_ctrls.wrQLenPdf::44                      0                       # What write queue length does an incoming req see
system.mem_ctrls.wrQLenPdf::45                      0                       # What write queue length does an incoming req see
system.mem_ctrls.wrQLenPdf::46                      0                       # What write queue length does an incoming req see
system.mem_ctrls.wrQLenPdf::47                      0                       # What write queue length does an incoming req see
system.mem_ctrls.wrQLenPdf::48                      0                       # What write queue length does an incoming req see
system.mem_ctrls.wrQLenPdf::49                      0                       # What write queue length does an incoming req see
system.mem_ctrls.wrQLenPdf::50                      0                       # What write queue length does an incoming req see
system.mem_ctrls.wrQLenPdf::51                      0                       # What write queue length does an incoming req see
system.mem_ctrls.wrQLenPdf::52                      0                       # What write queue length does an incoming req see
system.mem_ctrls.wrQLenPdf::53                      0                       # What write queue length does an incoming req see
system.mem_ctrls.wrQLenPdf::54                      0                       # What write queue length does an incoming req see
system.mem_ctrls.wrQLenPdf::55                      0                       # What write queue length does an incoming req see
system.mem_ctrls.wrQLenPdf::56                      0                       # What write queue length does an incoming req see
system.mem_ctrls.wrQLenPdf::57                      0                       # What write queue length does an incoming req see
system.mem_ctrls.wrQLenPdf::58                      0                       # What write queue length does an incoming req see
system.mem_ctrls.wrQLenPdf::59                      0                       # What write queue length does an incoming req see
system.mem_ctrls.wrQLenPdf::60                      0                       # What write queue length does an incoming req see
system.mem_ctrls.wrQLenPdf::61                      0                       # What write queue length does an incoming req see
system.mem_ctrls.wrQLenPdf::62                      0                       # What write queue length does an incoming req see
system.mem_ctrls.wrQLenPdf::63                      0                       # What write queue length does an incoming req see
system.mem_ctrls.bytesPerActivate::samples         1730                       # Bytes accessed per row activation
system.mem_ctrls.bytesPerActivate::mean    215.084393                       # Bytes accessed per row activation
system.mem_ctrls.bytesPerActivate::gmean   151.515015                       # Bytes accessed per row activation
system.mem_ctrls.bytesPerActivate::stdev   174.264256                       # Bytes accessed per row activation
system.mem_ctrls.bytesPerActivate::64-127          736     42.54%     42.54% # Bytes accessed per row activation
system.mem_ctrls.bytesPerActivate::128-191          215     12.43%     54.97% # Bytes accessed per row activation
system.mem_ctrls.bytesPerActivate::192-255          132      7.63%     62.60% # Bytes accessed per row activation
system.mem_ctrls.bytesPerActivate::256-319           91      5.26%     67.86% # Bytes accessed per row activation
system.mem_ctrls.bytesPerActivate::320-383          138      7.98%     75.84% # Bytes accessed per row activation
system.mem_ctrls.bytesPerActivate::384-447           53      3.06%     78.90% # Bytes accessed per row activation
system.mem_ctrls.bytesPerActivate::448-511           40      2.31%     81.21% # Bytes accessed per row activation
system.mem_ctrls.bytesPerActivate::512-575          325     18.79%    100.00% # Bytes accessed per row activation
system.mem_ctrls.bytesPerActivate::total         1730                       # Bytes accessed per row activation
system.mem_ctrls.bytesReadDRAM                 373376                       # Total number of bytes read from DRAM
system.mem_ctrls.bytesReadWrQ                       0                       # Total number of bytes read from write queue
system.mem_ctrls.bytesWritten                       0                       # Total number of bytes written to DRAM
system.mem_ctrls.bytesReadSys                  373376                       # Total read bytes from the system interface side
system.mem_ctrls.bytesWrittenSys                    0                       # Total written bytes from the system interface side
system.mem_ctrls.avgRdBW                         1.66                       # Average DRAM read bandwidth in MiByte/s
system.mem_ctrls.avgWrBW                         0.00                       # Average achieved write bandwidth in MiByte/s
system.mem_ctrls.avgRdBWSys                      1.66                       # Average system read bandwidth in MiByte/s
system.mem_ctrls.avgWrBWSys                      0.00                       # Average system write bandwidth in MiByte/s
system.mem_ctrls.peakBW                       6400.00                       # Theoretical peak bandwidth in MiByte/s
system.mem_ctrls.busUtil                         0.03                       # Data bus utilization in percentage
system.mem_ctrls.busUtilRead                     0.03                       # Data bus utilization in percentage for reads
system.mem_ctrls.busUtilWrite                    0.00                       # Data bus utilization in percentage for writes
system.mem_ctrls.totGap                  224285900020                       # Total gap between requests
system.mem_ctrls.avgGap                   38444617.76                       # Average gap between requests
system.mem_ctrls.masterReadBytes::.cpu_cluster.cpus.inst       117120                       # Per-master bytes read from memory
system.mem_ctrls.masterReadBytes::.cpu_cluster.cpus.data       207616                       # Per-master bytes read from memory
system.mem_ctrls.masterReadBytes::.cpu_cluster.cpus.dcache.prefetcher        48640                       # Per-master bytes read from memory
system.mem_ctrls.masterReadRate::.cpu_cluster.cpus.inst 522190.487229329825                       # Per-master bytes read from memory rate (Bytes/sec)
system.mem_ctrls.masterReadRate::.cpu_cluster.cpus.data 925675.377361719147                       # Per-master bytes read from memory rate (Bytes/sec)
system.mem_ctrls.masterReadRate::.cpu_cluster.cpus.dcache.prefetcher 216865.994696333684                       # Per-master bytes read from memory rate (Bytes/sec)
system.mem_ctrls.masterReadAccesses::.cpu_cluster.cpus.inst         3660                       # Per-master read serviced memory accesses
system.mem_ctrls.masterReadAccesses::.cpu_cluster.cpus.data         6488                       # Per-master read serviced memory accesses
system.mem_ctrls.masterReadAccesses::.cpu_cluster.cpus.dcache.prefetcher         1520                       # Per-master read serviced memory accesses
system.mem_ctrls.masterReadTotalLat::.cpu_cluster.cpus.inst    123493174                       # Per-master read total memory access latency
system.mem_ctrls.masterReadTotalLat::.cpu_cluster.cpus.data    212375836                       # Per-master read total memory access latency
system.mem_ctrls.masterReadTotalLat::.cpu_cluster.cpus.dcache.prefetcher     48404138                       # Per-master read total memory access latency
system.mem_ctrls.masterReadAvgLat::.cpu_cluster.cpus.inst     33741.30                       # Per-master read average memory access latency
system.mem_ctrls.masterReadAvgLat::.cpu_cluster.cpus.data     32733.64                       # Per-master read average memory access latency
system.mem_ctrls.masterReadAvgLat::.cpu_cluster.cpus.dcache.prefetcher     31844.83                       # Per-master read average memory access latency
system.mem_ctrls.pageHitRate                    85.13                       # Row buffer hit rate, read and write combined
system.mem_ctrls.rank0.actEnergy              3096975                       # Energy for activate commands per rank (pJ)
system.mem_ctrls.rank0.preEnergy         1627584.000000                       # Energy for precharge commands per rank (pJ)
system.mem_ctrls.rank0.readEnergy            13721568                       # Energy for read commands per rank (pJ)
system.mem_ctrls.rank0.writeEnergy                  0                       # Energy for write commands per rank (pJ)
system.mem_ctrls.rank0.refreshEnergy       1396999500                       # Energy for refresh commands per rank (pJ)
system.mem_ctrls.rank0.actBackEnergy        353328429                       # Energy for active background per rank (pJ)
system.mem_ctrls.rank0.preBackEnergy     7060949959.206517                       # Energy for precharge background per rank (pJ)
system.mem_ctrls.rank0.actPowerDownEnergy            0                       # Energy for active power-down per rank (pJ)
system.mem_ctrls.rank0.prePowerDownEnergy            0                       # Energy for precharge power-down per rank (pJ)
system.mem_ctrls.rank0.selfRefreshEnergy            0                       # Energy for self refresh per rank (pJ)
system.mem_ctrls.rank0.totalEnergy       8829724015.208277                       # Total energy per rank (pJ)
system.mem_ctrls.rank0.averagePower         39.368151                       # Core power per rank (mW)
system.mem_ctrls.rank0.totalIdleTime                0                       # Total Idle time Per DRAM Rank
system.mem_ctrls.rank0.memoryStateTime::IDLE 215230147461                       # Time in different power states
system.mem_ctrls.rank0.memoryStateTime::REF   7510750000                       # Time in different power states
system.mem_ctrls.rank0.memoryStateTime::SREF            0                       # Time in different power states
system.mem_ctrls.rank0.memoryStateTime::PRE_PDN            0                       # Time in different power states
system.mem_ctrls.rank0.memoryStateTime::ACT   1545072629                       # Time in different power states
system.mem_ctrls.rank0.memoryStateTime::ACT_PDN            0                       # Time in different power states

---------- End Simulation Statistics   ----------
