gem5 Simulator System.  http://gem5.org
gem5 is copyrighted software; use the --copyright option for details.

gem5 compiled Jun 12 2023 18:40:01
gem5 started Jul 15 2023 09:30:55
gem5 executing on node4x10a.cs.rochester.edu, pid 52606
command line: /u/sgupta45/gem5-SALAM/build/ARM/gem5_bus.opt --debug-flags=HWACC,CommInterface,LLVMInterface,StreamDma,NoncoherentDma,TickTimer,SchedulerStats --outdir=BM_ARM_OUT/comb_pred_4/canny_1_deblur_0_gru_1_harris_1_lstm_1_LAX_MEM_PRED_EWMA_0.25_dm_false configs/SALAM/scheduler.py --mem-size=4GB --mem-type=LPDDR5_6400_1x16_BG_BL32 --kernel=/u/sgupta45/gem5-SALAM/benchmarks/scheduler/sw/bin_comb_pred_4/canny_1_deblur_0_gru_1_harris_1_lstm_1_LAX_MEM_PRED_EWMA_0.25_dm_false.elf --vans-config-path=/u/sgupta45/VANS/config --disk-image=/u/sgupta45/gem5-SALAM/baremetal/common/fake.iso --machine-type=VExpress_GEM5_V1 --dtb-file=none --bare-metal --cpu-type=ex5_LITTLE --cpu-clock=1.6GHz --accpath=/u/sgupta45/gem5-SALAM/benchmarks --caches --cacheline_size=64 --l1d_size=32kB --l1d_assoc=4 --l1i_size=32kB --l1i_assoc=2

Global frequency set at 1000000000000 ticks per second
Cycle Counts Loaded!
Cycle Counts Loaded!
Cycle Counts Loaded!
Cycle Counts Loaded!
Cycle Counts Loaded!
Cycle Counts Loaded!
Cycle Counts Loaded!
Cycle Counts Loaded!
Cycle Counts Loaded!
Cycle Counts Loaded!
Cycle Counts Loaded!
**** REAL SIMULATION ****
7112195625: global: Timer #2 started at tick 7112195625
7113242500: global: Timer #2 stopped at tick 7113242500. Duration: 1046875
7117363125: global: Timer #2 started at tick 7117363125
7117797500: global: Timer #2 stopped at tick 7117797500. Duration: 434375
7149245000: global: Timer #2 started at tick 7149245000
7149878750: global: Timer #2 stopped at tick 7149878750. Duration: 633750
7155411250: global: Timer #2 started at tick 7155411250
7155807500: global: Timer #2 stopped at tick 7155807500. Duration: 396250
7206209500: system.acctest.elem_matrix0_dma: SRC:0x000000008222e400, DST:0x0000000024000020, LEN:65536
7211354000: system.acctest.isp0_dma: SRC:0x0000000082018d40, DST:0x0000000027000020, LEN:16900
7211750000: global: Number of accelerators running = 2
7215767000: system.acctest.isp0_dma: Transfer completed in 4.413 us
7216371875: global: Timer #0 started at tick 7216371875
7217804375: global: Timer #1 started at tick 7217804375
7218726875: global: Timer #1 stopped at tick 7218726875. Duration: 922500
7219476500: system.acctest.elem_matrix0_dma: Transfer completed in 13.267 us
7220763750: global: Timer #0 stopped at tick 7220763750. Duration: 4391875
7220825625: global: Number of accelerators running = 2
7221160625: global: Timer #0 started at tick 7221160625
7221825625: global: Timer #1 started at tick 7221825625
7222460000: global: Timer #1 stopped at tick 7222460000. Duration: 634375
7236727375: system.acctest.elem_matrix0_dma: SRC:0x000000008212e240, DST:0x0000000024010020, LEN:65536
7237051250: global: Timer #0 stopped at tick 7237051250. Duration: 15890625
7237067500: global: Number of accelerators running = 2
7248696375: system.acctest.elem_matrix0_dma: Transfer completed in 11.969 us
7248864375: global: Timer #0 started at tick 7248864375
7249387500: global: Timer #1 started at tick 7249387500
7249826250: global: Timer #1 stopped at tick 7249826250. Duration: 438750
7251398125: global: Timer #0 stopped at tick 7251398125. Duration: 2533750
7251414375: global: Number of accelerators running = 2
********************************************************************************
system.acctest.isp0.compute
   ========= Performance Analysis =============
   Setup Time:                      0.145176seconds
   Simulation Time:                 442.987seconds
   System Clock:                    1GHz
   Transistor Latency:              1ns
   Runtime:                         34882 cycles
   Runtime:                         34.882 us
   Stalls:                          1 cycles
   Executed Nodes:                  34880 cycles

********************************************************************************
   ========= Performance Analysis =================
   Setup Time:                      1.45176e+08ns
   Simulation Time:                 4.42987e+11ns
   System Clock:                    1GHz
   Transistor Latency:              0ns
   Runtime:                         34882 cycles
   Runtime:                         3.4882e-06 seconds
   Stalls:                          1 cycles
       Load Only:                   0 cycles
       Store Only:                  1 cycles
       Compute Only:                0 cycles
       Compute & Store:             0 cycles
       Load & Store:                0 cycles
       Load & Compute:              0 cycles
       Load & Compute & Store:      0 cycles
   Executed Nodes:                  34880 cycles
       Load Only:                   0 cycles
       Store Only:                  1 cycles
       Compute Only:                3453 cycles
       Compute & Store:             19014 cycles
       Load & Store:                0 cycles
       Load & Compute:              2467 cycles
       Load & Compute & Store:      9945 cycles

   ========= Runtime FU's ========= (Max | Avg) ===
   Counter FU's:                      10 | 0.118075
   Integer Add/Sub FU's:              76 | 0.082082
   Integer Mul/Div FU's:              11 | 0.043888
   Integer Shifter FU's:              42 | 0.055974
   Integer Bitwise FU's:               4 | 0.059443
   Floating Point Float Add/Sub:      53 | 0.116839
   Floating Point Double Add/Sub:      0 | 0.000000
   Floating Point Float Mul/Div:      76 | 0.625626
   Floating Point Double Mul/Div:      0 | 0.000000
   0 Cycle Compare FU's:              85 | 0.664984
   GEP Instruction FU's:              33 | 0.117424
   Type Conversion FU's:             110 | 0.379700

   ========= Static FU's ==========================
   Counter FU's:                    0
   Integer Add/Sub FU's:            0
   Integer Mul/Div FU's:            0
   Integer Shifter FU's:            0
   Integer Bitwise FU's:            0
   Floating Point Float Add/Sub:    0
   Floating Point Double Add/Sub:   0
   Floating Point Float Mul/Div:    0
   Floating Point Double Mul/Div:   0
   0 Cycle Compare FU's:            0
   GEP Instruction FU's:            0
   Type Conversion FU's:            0
   Other:                           0

   ========= Pipeline Register Usage =============
   Total Number of Registers:       1620
   Max Register Usage Per Cycle:    151
   Avg Register Usage Per Cycle:    58.744711
   Avg Register Size (Bytes):       5.073357

   ========= Memory Configuration =================
   Cache Bus Ports:                 0
   Shared Cache Size:               0kB
   Local Bus Ports:                 0
   Private SPM Size:                112kB
   Private Read Ports:              0
   Private Write Ports:             0
   Private Read Bus Width:          64
   Private Write Bus Width:         64
       Memory Reads:                0
       Memory Writes:               0
   ========= Power Analysis ======================
   FU Leakage Power:                1.637787 mW 
   FU Dynamic Power:                9.655087 mW 
   FU Total Power:                  11.292874 mW 

   Registers Leakage Power:          0.021654 mW 
   Registers Dynamic Power:          3.085961 mW 
       Register Reads (Bits):        2049133
       Register Writes (Bits):       2049168
   Registers Total Power:            3.107615 mW

   SPM Leakage Power:               0.061081 mW
   SPM Read Dynamic Power:          11.103730 mW
   SPM Write Dynamic Power:         7.385230 mW
   SPM Total Power:                 18.550041 mW

   Cache Leakage Power:             0.000000 mW
   Cache Read Dynamic Power:        0.000000 mW
   Cache Write Dynamic Power:       0.000000 mW
   Cache Total Power:               0.000000 mW

   Accelerator Power:               14.400490 mW
   Accelerator Power (SPM):         32.950531 mW
   Accelerator Power (Cache):       14.400490 mW

   ========= Area Analysis =======================
   FU Area:                         176023.796875 um^2 (0.176024 mm^2)
   Register Area:                   1760.064941 um^2 (0.001760 mm^2)
   SPM Area:                        2165.394891 um^2 (0.002165 mm^2)
   Cache Area:                      0.000000 um^2 (0.000000 mm^2)

   Accelerator Area:                177783.859375 um^2 (0.177784 mm^2)
   Accelerator Area (SPM):          179949.254266 um^2 (0.179949 mm^2)
   Accelerator Area (Cache):        177783.859375 um^2 (0.177784 mm^2)

   ========= SPM Resizing  =======================
   SPM Optimized Leakage Power:     0.005964 mW
   SPM Opt Area:                    422.108128 um^2

7255075625: global: Timer #0 started at tick 7255075625
7255794375: global: Timer #2 started at tick 7255794375
7256659375: global: Timer #2 stopped at tick 7256659375. Duration: 865000
7257428125: global: DAG ID = 0
7257447500: global: Node ID = 0
7257465625: global: Node deadline difference = -13497
7257527500: global: Predicted memory time / byte = 7.27596e-05 us/byte
7257545625: global: Predicted memory time = 1.22964 us
7257563750: global: Predicted memory time / byte = 7.27596e-05 us/byte
7257581875: global: Predicted memory time = 3.57628 us
7257600000: global: Predicted memory time / byte = 0.000302189 us/byte
7257661250: global: Predicted memory time = 5.107 us
7257679375: global: Predicted memory time / byte = 0 us/byte
7257697500: global: Predicted memory time = 0 us
7257715625: global: Predicted memory access size = 0
7257733750: global: Predicted memory access size = 16900
7257796250: global: Predicted memory access size = 0
7257815000: global: Predicted memory access size = 0
7259083750: system.acctest.grayscale0_dma: SRC:0x0000000027004224, DST:0x0000000025000020, LEN:49152
********************************************************************************
system.acctest.elem_matrix0.compute
   ========= Performance Analysis =============
   Setup Time:                      3.471803seconds
   Simulation Time:                 169.602987seconds
   System Clock:                    1.000000GHz
   Transistor Latency:              1ns
   Runtime:                         10932 cycles
   Runtime:                         10.932000 us
   Stalls:                          0 cycles
   Executed Nodes:                  10931 cycles

********************************************************************************
   ========= Performance Analysis =================
   Setup Time:                      3471802633.000000ns
   Simulation Time:                 169602987244.000000ns
   System Clock:                    1.000000GHz
   Transistor Latency:              0ns
   Runtime:                         10932 cycles
   Runtime:                         0.000001 seconds
   Stalls:                          0 cycles
       Load Only:                   0 cycles
       Store Only:                  0 cycles
       Compute Only:                0 cycles
       Compute & Store:             0 cycles
       Load & Store:                0 cycles
       Load & Compute:              0 cycles
       Load & Compute & Store:      0 cycles
   Executed Nodes:                  10931 cycles
       Load Only:                   0 cycles
       Store Only:                  5 cycles
       Compute Only:                1 cycles
       Compute & Store:             21 cycles
       Load & Store:                0 cycles
       Load & Compute:              7 cycles
       Load & Compute & Store:      10897 cycles

   ========= Runtime FU's ========= (Max | Avg) ===
   Counter FU's:                      32 | 0.046838
   Integer Add/Sub FU's:               0 | 0.000000
   Integer Mul/Div FU's:               0 | 0.000000
   Integer Shifter FU's:               0 | 0.000000
   Integer Bitwise FU's:               1 | 0.000091
   Floating Point Float Add/Sub:      34 | 0.044252
   Floating Point Double Add/Sub:      0 | 0.000000
   Floating Point Float Mul/Div:       0 | 0.000000
   Floating Point Double Mul/Div:      0 | 0.000000
   0 Cycle Compare FU's:             102 | 0.046974
   GEP Instruction FU's:              96 | 0.046835
   Type Conversion FU's:               7 | 0.006782

   ========= Static FU's ==========================
   Counter FU's:                    0
   Integer Add/Sub FU's:            0
   Integer Mul/Div FU's:            0
   Integer Shifter FU's:            0
   Integer Bitwise FU's:            0
   Floating Point Float Add/Sub:    0
   Floating Point Double Add/Sub:   0
   Floating Point Float Mul/Div:    0
   Floating Point Double Mul/Div:   0
   0 Cycle Compare FU's:            0
   GEP Instruction FU's:            0
   Type Conversion FU's:            0
   Other:                           0

   ========= Pipeline Register Usage =============
   Total Number of Registers:       5641
   Max Register Usage Per Cycle:    138
   Avg Register Usage Per Cycle:    12.130992
   Avg Register Size (Bytes):       5.980606

   ========= Memory Configuration =================
   Cache Bus Ports:                 0
   Shared Cache Size:               0kB
   Local Bus Ports:                 0
   Private SPM Size:                256kB
   Private Read Ports:              0
   Private Write Ports:             0
   Private Read Bus Width:          64
   Private Write Bus Width:         64
       Memory Reads:                0
       Memory Writes:               0
   ========= Power Analysis ======================
   FU Leakage Power:                0.519269 mW 
   FU Dynamic Power:                0.154621 mW 
   FU Total Power:                  0.673890 mW 

   Registers Leakage Power:          0.005281 mW 
   Registers Dynamic Power:          0.015326 mW 
       Register Reads (Bits):        132616
       Register Writes (Bits):       133658
   Registers Total Power:            0.020607 mW

   SPM Leakage Power:               0.104100 mW
   SPM Read Dynamic Power:          1.997266 mW
   SPM Write Dynamic Power:         0.953321 mW
   SPM Total Power:                 3.054688 mW

   Cache Leakage Power:             0.000000 mW
   Cache Read Dynamic Power:        0.000000 mW
   Cache Write Dynamic Power:       0.000000 mW
   Cache Total Power:               0.000000 mW

   Accelerator Power:               0.694497 mW
   Accelerator Power (SPM):         3.749184 mW
   Accelerator Power (Cache):       0.694497 mW

   ========= Area Analysis =======================
   FU Area:                         70212.562500 um^2 (0.070213 mm^2)
   Register Area:                   429.271088 um^2 (0.000429 mm^2)
   SPM Area:                        2177.365505 um^2 (0.002177 mm^2)
   Cache Area:                      0.000000 um^2 (0.000000 mm^2)

   Accelerator Area:                70641.835938 um^2 (0.070642 mm^2)
   Accelerator Area (SPM):          72819.201442 um^2 (0.072819 mm^2)
   Accelerator Area (Cache):        70641.835938 um^2 (0.070642 mm^2)

   ========= SPM Resizing  =======================
   SPM Optimized Leakage Power:     0.004248 mW
   SPM Opt Area:                    178.524902 um^2

7263893000: system.acctest.isp0_dma: SRC:0x0000000082949980, DST:0x0000000027000020, LEN:16900
7264175000: global: Timer #0 stopped at tick 7264175000. Duration: 9099375
7264191250: global: Number of accelerators running = 3
7264346875: global: Timer #0 started at tick 7264346875
7264829375: global: Timer #2 started at tick 7264829375
7265441875: global: Timer #2 stopped at tick 7265441875. Duration: 612500
7265732500: global: Timer #2 started at tick 7265732500
7266165000: global: Timer #2 stopped at tick 7266165000. Duration: 432500
7267168000: system.acctest.isp0_dma: Transfer completed in 3.275 us
7268645750: system.acctest.grayscale0_dma: Transfer completed in 9.562 us
7279642375: system.acctest.elem_matrix0_dma: SRC:0x0000000024020020, DST:0x000000008213e240, LEN:65536
7280096875: global: Timer #0 stopped at tick 7280096875. Duration: 15750000
7280113125: global: Number of accelerators running = 3
7280315625: global: Timer #0 started at tick 7280315625
7280824375: global: Timer #1 started at tick 7280824375
7281313125: global: Timer #1 stopped at tick 7281313125. Duration: 488750
7282565625: global: Timer #0 stopped at tick 7282565625. Duration: 2250000
7282625000: global: Number of accelerators running = 3
7282975625: global: Timer #0 started at tick 7282975625
7283554375: global: Timer #1 started at tick 7283554375
7284033750: global: Timer #1 stopped at tick 7284033750. Duration: 479375
7285408750: global: Timer #0 stopped at tick 7285408750. Duration: 2433125
7285510625: global: Number of accelerators running = 3
7285931375: system.acctest.elem_matrix0_dma: Transfer completed in 6.289 us
7286118125: global: Timer #0 started at tick 7286118125
7286712500: global: Timer #1 started at tick 7286712500
7287096875: global: Timer #1 stopped at tick 7287096875. Duration: 384375
7287552500: global: DAG ID = 1
7287616250: global: Node ID = 0
7287690000: global: Node deadline difference = -2224
7287708125: global: Predicted memory time / byte = 7.27596e-05 us/byte
7287726250: global: Predicted memory time = 9.53674 us
7287746250: global: Predicted memory time / byte = 7.27596e-05 us/byte
7287764375: global: Predicted memory time = 4.76837 us
7287782500: global: Predicted memory time / byte = 0.000206924 us/byte
7287800625: global: Predicted memory time = 27.122 us
7287818750: global: Predicted memory time / byte = 0.000100159 us/byte
7287836875: global: Predicted memory time = 6.564 us
7287856875: global: Predicted memory access size = 0
7287875000: global: Predicted memory access size = 131072
7287893125: global: Predicted memory access size = 0
7287911250: global: Predicted memory access size = 65536
********************************************************************************
system.acctest.grayscale0.compute
   ========= Performance Analysis =============
   Setup Time:                      0.008852seconds
   Simulation Time:                 273.592191seconds
   System Clock:                    1.000000GHz
   Transistor Latency:              1ns
   Runtime:                         10263 cycles
   Runtime:                         10.263000 us
   Stalls:                          1 cycles
   Executed Nodes:                  10261 cycles

********************************************************************************
   ========= Performance Analysis =================
   Setup Time:                      8851682.000000ns
   Simulation Time:                 273592191378.000000ns
   System Clock:                    1.000000GHz
   Transistor Latency:              0ns
   Runtime:                         10263 cycles
   Runtime:                         0.000001 seconds
   Stalls:                          1 cycles
       Load Only:                   0 cycles
       Store Only:                  1 cycles
       Compute Only:                0 cycles
       Compute & Store:             0 cycles
       Load & Store:                0 cycles
       Load & Compute:              0 cycles
       Load & Compute & Store:      0 cycles
   Executed Nodes:                  10261 cycles
       Load Only:                   0 cycles
       Store Only:                  1 cycles
       Compute Only:                88 cycles
       Compute & Store:             344 cycles
       Load & Store:                0 cycles
       Load & Compute:              1981 cycles
       Load & Compute & Store:      7847 cycles

   ========= Runtime FU's ========= (Max | Avg) ===
   Counter FU's:                      24 | 0.199556
   Integer Add/Sub FU's:               0 | 0.000000
   Integer Mul/Div FU's:               8 | 0.199552
   Integer Shifter FU's:               0 | 0.000000
   Integer Bitwise FU's:               1 | 0.000097
   Floating Point Float Add/Sub:      49 | 0.114264
   Floating Point Double Add/Sub:      0 | 0.000000
   Floating Point Float Mul/Div:      42 | 0.114129
   Floating Point Double Mul/Div:      0 | 0.000000
   0 Cycle Compare FU's:               9 | 0.066626
   GEP Instruction FU's:              36 | 0.177452
   Type Conversion FU's:              76 | 0.401969

   ========= Static FU's ==========================
   Counter FU's:                    0
   Integer Add/Sub FU's:            0
   Integer Mul/Div FU's:            0
   Integer Shifter FU's:            0
   Integer Bitwise FU's:            0
   Floating Point Float Add/Sub:    0
   Floating Point Double Add/Sub:   0
   Floating Point Float Mul/Div:    0
   Floating Point Double Mul/Div:   0
   0 Cycle Compare FU's:            0
   GEP Instruction FU's:            0
   Type Conversion FU's:            0
   Other:                           0

   ========= Pipeline Register Usage =============
   Total Number of Registers:       235
   Max Register Usage Per Cycle:    90
   Avg Register Usage Per Cycle:    33.924291
   Avg Register Size (Bytes):       5.841147

   ========= Memory Configuration =================
   Cache Bus Ports:                 0
   Shared Cache Size:               0kB
   Local Bus Ports:                 0
   Private SPM Size:                176kB
   Private Read Ports:              0
   Private Write Ports:             0
   Private Read Bus Width:          64
   Private Write Bus Width:         64
       Memory Reads:                0
       Memory Writes:               0
   ========= Power Analysis ======================
   FU Leakage Power:                1.178269 mW 
   FU Dynamic Power:                0.617392 mW 
   FU Total Power:                  1.795662 mW 

   Registers Leakage Power:          0.014185 mW 
   Registers Dynamic Power:          0.101057 mW 
       Register Reads (Bits):        348165
       Register Writes (Bits):       348168
   Registers Total Power:            0.115242 mW

   SPM Leakage Power:               0.089881 mW
   SPM Read Dynamic Power:          6.997296 mW
   SPM Write Dynamic Power:         2.062375 mW
   SPM Total Power:                 9.149552 mW

   Cache Leakage Power:             0.000000 mW
   Cache Read Dynamic Power:        0.000000 mW
   Cache Write Dynamic Power:       0.000000 mW
   Cache Total Power:               0.000000 mW

   Accelerator Power:               1.910904 mW
   Accelerator Power (SPM):         11.060456 mW
   Accelerator Power (Cache):       1.910904 mW

   ========= Area Analysis =======================
   FU Area:                         143348.187500 um^2 (0.143348 mm^2)
   Register Area:                   1152.968140 um^2 (0.001153 mm^2)
   SPM Area:                        3573.642862 um^2 (0.003574 mm^2)
   Cache Area:                      0.000000 um^2 (0.000000 mm^2)

   Accelerator Area:                144501.156250 um^2 (0.144501 mm^2)
   Accelerator Area (SPM):          148074.799112 um^2 (0.148075 mm^2)
   Accelerator Area (Cache):        144501.156250 um^2 (0.144501 mm^2)

   ========= SPM Resizing  =======================
   SPM Optimized Leakage Power:     0.003633 mW
   SPM Opt Area:                    364.024374 um^2

7301633750: system.acctest.elem_matrix0_dma: SRC:0x00000000820ee0c0, DST:0x0000000024000020, LEN:65536
7301845625: global: Timer #0 stopped at tick 7301845625. Duration: 15727500
7301861875: global: Number of accelerators running = 3
7302103750: global: Timer #0 started at tick 7302103750
7302564375: global: Timer #2 started at tick 7302564375
7303153750: global: Timer #2 stopped at tick 7303153750. Duration: 589375
7303415000: global: DAG ID = 0
7303428750: global: Node ID = 1
7303441875: global: Node deadline difference = -13488
7303454375: global: Predicted memory time / byte = 0.00025915 us/byte
7303466875: global: Predicted memory time = 12.7377 us
7303479375: global: Predicted memory time / byte = 0.00025915 us/byte
7303491875: global: Predicted memory time = 16.9837 us
7303504375: global: Predicted memory time / byte = 0.000486877 us/byte
7303516875: global: Predicted memory time = 23.931 us
7303529375: global: Predicted memory time / byte = 0 us/byte
7303541875: global: Predicted memory time = 0 us
7303554375: global: Predicted memory access size = 0
7303566875: global: Predicted memory access size = 49152
7303579375: global: Predicted memory access size = 0
7303591875: global: Predicted memory access size = 0
7305000875: system.acctest.convolution0_dma: SRC:0x000000002500c020, DST:0x0000000022000020, LEN:65536
7305395000: global: Timer #0 stopped at tick 7305395000. Duration: 3291250
7305411250: global: Number of accelerators running = 3
7314052750: system.acctest.elem_matrix0_dma: Transfer completed in 12.419 us
7314225000: global: Timer #0 started at tick 7314225000
7314714375: global: Timer #1 started at tick 7314714375
7315151250: global: Timer #1 stopped at tick 7315151250. Duration: 436875
7317037500: global: Timer #0 stopped at tick 7317037500. Duration: 2812500
7317053750: global: Number of accelerators running = 3
********************************************************************************
system.acctest.isp0.compute
   ========= Performance Analysis =============
   Setup Time:                      0.398812seconds
   Simulation Time:                 638.442612seconds
   System Clock:                    1.000000GHz
   Transistor Latency:              1ns
   Runtime:                         34882 cycles
   Runtime:                         34.882000 us
   Stalls:                          1 cycles
   Executed Nodes:                  34880 cycles

********************************************************************************
   ========= Performance Analysis =================
   Setup Time:                      398812045.000000ns
   Simulation Time:                 638442612170.000000ns
   System Clock:                    1.000000GHz
   Transistor Latency:              0ns
   Runtime:                         34882 cycles
   Runtime:                         0.000003 seconds
   Stalls:                          1 cycles
       Load Only:                   0 cycles
       Store Only:                  1 cycles
       Compute Only:                0 cycles
       Compute & Store:             0 cycles
       Load & Store:                0 cycles
       Load & Compute:              0 cycles
       Load & Compute & Store:      0 cycles
   Executed Nodes:                  34880 cycles
       Load Only:                   0 cycles
       Store Only:                  1 cycles
       Compute Only:                3453 cycles
       Compute & Store:             19014 cycles
       Load & Store:                0 cycles
       Load & Compute:              2467 cycles
       Load & Compute & Store:      9945 cycles

   ========= Runtime FU's ========= (Max | Avg) ===
   Counter FU's:                      10 | 0.118075
   Integer Add/Sub FU's:              76 | 0.082082
   Integer Mul/Div FU's:              11 | 0.043888
   Integer Shifter FU's:              42 | 0.055974
   Integer Bitwise FU's:               4 | 0.059443
   Floating Point Float Add/Sub:      53 | 0.116839
   Floating Point Double Add/Sub:      0 | 0.000000
   Floating Point Float Mul/Div:      76 | 0.625626
   Floating Point Double Mul/Div:      0 | 0.000000
   0 Cycle Compare FU's:              85 | 0.664984
   GEP Instruction FU's:              33 | 0.117424
   Type Conversion FU's:             110 | 0.379700

   ========= Static FU's ==========================
   Counter FU's:                    0
   Integer Add/Sub FU's:            0
   Integer Mul/Div FU's:            0
   Integer Shifter FU's:            0
   Integer Bitwise FU's:            0
   Floating Point Float Add/Sub:    0
   Floating Point Double Add/Sub:   0
   Floating Point Float Mul/Div:    0
   Floating Point Double Mul/Div:   0
   0 Cycle Compare FU's:            0
   GEP Instruction FU's:            0
   Type Conversion FU's:            0
   Other:                           0

   ========= Pipeline Register Usage =============
   Total Number of Registers:       1620
   Max Register Usage Per Cycle:    151
   Avg Register Usage Per Cycle:    58.744711
   Avg Register Size (Bytes):       5.073357

   ========= Memory Configuration =================
   Cache Bus Ports:                 0
   Shared Cache Size:               0kB
   Local Bus Ports:                 0
   Private SPM Size:                112kB
   Private Read Ports:              0
   Private Write Ports:             0
   Private Read Bus Width:          64
   Private Write Bus Width:         64
       Memory Reads:                0
       Memory Writes:               0
   ========= Power Analysis ======================
   FU Leakage Power:                1.637787 mW 
   FU Dynamic Power:                9.655087 mW 
   FU Total Power:                  11.292874 mW 

   Registers Leakage Power:          0.021654 mW 
   Registers Dynamic Power:          3.085961 mW 
       Register Reads (Bits):        2049133
       Register Writes (Bits):       2049168
   Registers Total Power:            3.107615 mW

   SPM Leakage Power:               0.061081 mW
   SPM Read Dynamic Power:          15.102444 mW
   SPM Write Dynamic Power:         10.618341 mW
   SPM Total Power:                 25.781867 mW

   Cache Leakage Power:             0.000000 mW
   Cache Read Dynamic Power:        0.000000 mW
   Cache Write Dynamic Power:       0.000000 mW
   Cache Total Power:               0.000000 mW

   Accelerator Power:               14.400490 mW
   Accelerator Power (SPM):         40.182357 mW
   Accelerator Power (Cache):       14.400490 mW

   ========= Area Analysis =======================
   FU Area:                         176023.796875 um^2 (0.176024 mm^2)
   Register Area:                   1760.064941 um^2 (0.001760 mm^2)
   SPM Area:                        2165.394891 um^2 (0.002165 mm^2)
   Cache Area:                      0.000000 um^2 (0.000000 mm^2)

   Accelerator Area:                177783.859375 um^2 (0.177784 mm^2)
   Accelerator Area (SPM):          179949.254266 um^2 (0.179949 mm^2)
   Accelerator Area (Cache):        177783.859375 um^2 (0.177784 mm^2)

   ========= SPM Resizing  =======================
   SPM Optimized Leakage Power:     0.005964 mW
   SPM Opt Area:                    422.108128 um^2

7317305000: global: Timer #0 started at tick 7317305000
7317876875: global: Timer #2 started at tick 7317876875
7318161875: global: Timer #2 stopped at tick 7318161875. Duration: 285000
7318415625: global: DAG ID = 2
7318429375: global: Node ID = 0
7318442500: global: Node deadline difference = -13898
7318455000: global: Predicted memory time / byte = 7.27596e-05 us/byte
7318467500: global: Predicted memory time = 1.22964 us
7318480000: global: Predicted memory time / byte = 7.27596e-05 us/byte
7318492500: global: Predicted memory time = 3.57628 us
7318505000: global: Predicted memory time / byte = 0.000971953 us/byte
7318517500: global: Predicted memory time = 16.426 us
7318530000: global: Predicted memory time / byte = 0 us/byte
7318542500: global: Predicted memory time = 0 us
7318555000: global: Predicted memory access size = 0
7318567500: global: Predicted memory access size = 16900
7318580000: global: Predicted memory access size = 0
7318592500: global: Predicted memory access size = 0
7319047875: system.acctest.convolution0_dma: Transfer completed in 14.047 us
7319371625: system.acctest.grayscale0_dma: SRC:0x0000000027010224, DST:0x0000000025000020, LEN:49152
7319582500: global: Timer #0 stopped at tick 7319582500. Duration: 2277500
7319598750: global: Number of accelerators running = 3
7319727500: global: Timer #0 started at tick 7319727500
7320219375: global: Timer #1 started at tick 7320219375
7320625625: global: Timer #1 stopped at tick 7320625625. Duration: 406250
7321963000: system.acctest.convolution0_dma: SRC:0x0000000082039280, DST:0x0000000022030020, LEN:100
7322067000: system.acctest.convolution0_dma: Transfer completed in 0.104 us
7322266875: global: Timer #0 stopped at tick 7322266875. Duration: 2539375
7322283125: global: Number of accelerators running = 3
7322628750: global: Timer #0 started at tick 7322628750
7324503750: global: Timer #0 stopped at tick 7324503750. Duration: 1875000
7324520000: global: Number of accelerators running = 3
7327105625: system.acctest.grayscale0_dma: Transfer completed in 7.734 us
7327191875: global: Timer #0 started at tick 7327191875
7327503125: global: Timer #1 started at tick 7327503125
********************************************************************************
system.acctest.elem_matrix0.compute
   ========= Performance Analysis =============
   Setup Time:                      7.668252seconds
   Simulation Time:                 116.083905seconds
   System Clock:                    1.000000GHz
   Transistor Latency:              1ns
   Runtime:                         10932 cycles
   Runtime:                         10.932000 us
   Stalls:                          1 cycles
   Executed Nodes:                  10930 cycles

********************************************************************************
   ========= Performance Analysis =================
   Setup Time:                      7668251858.000000ns
   Simulation Time:                 116083905016.000000ns
   System Clock:                    1.000000GHz
   Transistor Latency:              0ns
   Runtime:                         10932 cycles
   Runtime:                         0.000001 seconds
   Stalls:                          1 cycles
       Load Only:                   0 cycles
       Store Only:                  1 cycles
       Compute Only:                0 cycles
       Compute & Store:             0 cycles
       Load & Store:                0 cycles
       Load & Compute:              0 cycles
       Load & Compute & Store:      0 cycles
   Executed Nodes:                  10930 cycles
       Load Only:                   0 cycles
       Store Only:                  4 cycles
       Compute Only:                1 cycles
       Compute & Store:             21 cycles
       Load & Store:                0 cycles
       Load & Compute:              6 cycles
       Load & Compute & Store:      10898 cycles

   ========= Runtime FU's ========= (Max | Avg) ===
   Counter FU's:                      32 | 0.046838
   Integer Add/Sub FU's:               0 | 0.000000
   Integer Mul/Div FU's:               0 | 0.000000
   Integer Shifter FU's:               0 | 0.000000
   Integer Bitwise FU's:               1 | 0.000091
   Floating Point Float Add/Sub:       0 | 0.000000
   Floating Point Double Add/Sub:      0 | 0.000000
   Floating Point Float Mul/Div:      34 | 0.044252
   Floating Point Double Mul/Div:      0 | 0.000000
   0 Cycle Compare FU's:             102 | 0.046945
   GEP Instruction FU's:              96 | 0.046835
   Type Conversion FU's:               7 | 0.006782

   ========= Static FU's ==========================
   Counter FU's:                    0
   Integer Add/Sub FU's:            0
   Integer Mul/Div FU's:            0
   Integer Shifter FU's:            0
   Integer Bitwise FU's:            0
   Floating Point Float Add/Sub:    0
   Floating Point Double Add/Sub:   0
   Floating Point Float Mul/Div:    0
   Floating Point Double Mul/Div:   0
   0 Cycle Compare FU's:            0
   GEP Instruction FU's:            0
   Type Conversion FU's:            0
   Other:                           0

   ========= Pipeline Register Usage =============
   Total Number of Registers:       5641
   Max Register Usage Per Cycle:    137
   Avg Register Usage Per Cycle:    12.130992
   Avg Register Size (Bytes):       5.980606

   ========= Memory Configuration =================
   Cache Bus Ports:                 0
   Shared Cache Size:               0kB
   Local Bus Ports:                 0
   Private SPM Size:                256kB
   Private Read Ports:              0
   Private Write Ports:             0
   Private Read Bus Width:          64
   Private Write Bus Width:         64
       Memory Reads:                0
       Memory Writes:               0
   ========= Power Analysis ======================
   FU Leakage Power:                0.045377 mW 
   FU Dynamic Power:                0.142576 mW 
   FU Total Power:                  0.187953 mW 

   Registers Leakage Power:          0.005281 mW 
   Registers Dynamic Power:          0.015326 mW 
       Register Reads (Bits):        132616
       Register Writes (Bits):       133658
   Registers Total Power:            0.020607 mW

   SPM Leakage Power:               0.104100 mW
   SPM Read Dynamic Power:          2.785289 mW
   SPM Write Dynamic Power:         2.044305 mW
   SPM Total Power:                 4.933694 mW

   Cache Leakage Power:             0.000000 mW
   Cache Read Dynamic Power:        0.000000 mW
   Cache Write Dynamic Power:       0.000000 mW
   Cache Total Power:               0.000000 mW

   Accelerator Power:               0.208559 mW
   Accelerator Power (SPM):         5.142254 mW
   Accelerator Power (Cache):       0.208559 mW

   ========= Area Analysis =======================
   FU Area:                         5472.068359 um^2 (0.005472 mm^2)
   Register Area:                   429.271088 um^2 (0.000429 mm^2)
   SPM Area:                        2177.365505 um^2 (0.002177 mm^2)
   Cache Area:                      0.000000 um^2 (0.000000 mm^2)

   Accelerator Area:                5901.339355 um^2 (0.005901 mm^2)
   Accelerator Area (SPM):          8078.704860 um^2 (0.008079 mm^2)
   Accelerator Area (Cache):        5901.339355 um^2 (0.005901 mm^2)

   ========= SPM Resizing  =======================
   SPM Optimized Leakage Power:     0.004248 mW
   SPM Opt Area:                    178.524902 um^2

7328023125: global: Timer #1 stopped at tick 7328023125. Duration: 520000
7329007500: global: Timer #0 stopped at tick 7329007500. Duration: 1815625
7329110000: global: Number of accelerators running = 3
7329423750: global: Timer #0 started at tick 7329423750
7329813125: global: Timer #2 started at tick 7329813125
7330178750: global: Timer #2 stopped at tick 7330178750. Duration: 365625
7330430000: global: DAG ID = 1
7330443750: global: Node ID = 5
7330456875: global: Node deadline difference = -2238
7330469375: global: Predicted memory time / byte = 0.00025915 us/byte
7330481875: global: Predicted memory time = 33.9673 us
7330494375: global: Predicted memory time / byte = 0.00025915 us/byte
7330506875: global: Predicted memory time = 16.9837 us
7330519375: global: Predicted memory time / byte = 0.000192184 us/byte
7330531875: global: Predicted memory time = 12.595 us
7330544375: global: Predicted memory time / byte = 0 us/byte
7330556875: global: Predicted memory time = 0 us
7330569375: global: Predicted memory access size = 0
7330581875: global: Predicted memory access size = 65536
7330594375: global: Predicted memory access size = 0
7330606875: global: Predicted memory access size = 0
********************************************************************************
system.acctest.grayscale0.compute
   ========= Performance Analysis =============
   Setup Time:                      0.005277seconds
   Simulation Time:                 119.104795seconds
   System Clock:                    1.000000GHz
   Transistor Latency:              1ns
   Runtime:                         10263 cycles
   Runtime:                         10.263000 us
   Stalls:                          1 cycles
   Executed Nodes:                  10261 cycles

********************************************************************************
   ========= Performance Analysis =================
   Setup Time:                      5276746.000000ns
   Simulation Time:                 119104794668.000000ns
   System Clock:                    1.000000GHz
   Transistor Latency:              0ns
   Runtime:                         10263 cycles
   Runtime:                         0.000001 seconds
   Stalls:                          1 cycles
       Load Only:                   0 cycles
       Store Only:                  1 cycles
       Compute Only:                0 cycles
       Compute & Store:             0 cycles
       Load & Store:                0 cycles
       Load & Compute:              0 cycles
       Load & Compute & Store:      0 cycles
   Executed Nodes:                  10261 cycles
       Load Only:                   0 cycles
       Store Only:                  1 cycles
       Compute Only:                88 cycles
       Compute & Store:             344 cycles
       Load & Store:                0 cycles
       Load & Compute:              1981 cycles
       Load & Compute & Store:      7847 cycles

   ========= Runtime FU's ========= (Max | Avg) ===
   Counter FU's:                      24 | 0.199556
   Integer Add/Sub FU's:               0 | 0.000000
   Integer Mul/Div FU's:               8 | 0.199552
   Integer Shifter FU's:               0 | 0.000000
   Integer Bitwise FU's:               1 | 0.000097
   Floating Point Float Add/Sub:      49 | 0.114264
   Floating Point Double Add/Sub:      0 | 0.000000
   Floating Point Float Mul/Div:      42 | 0.114129
   Floating Point Double Mul/Div:      0 | 0.000000
   0 Cycle Compare FU's:               9 | 0.066626
   GEP Instruction FU's:              36 | 0.177452
   Type Conversion FU's:              76 | 0.401969

   ========= Static FU's ==========================
   Counter FU's:                    0
   Integer Add/Sub FU's:            0
   Integer Mul/Div FU's:            0
   Integer Shifter FU's:            0
   Integer Bitwise FU's:            0
   Floating Point Float Add/Sub:    0
   Floating Point Double Add/Sub:   0
   Floating Point Float Mul/Div:    0
   Floating Point Double Mul/Div:   0
   0 Cycle Compare FU's:            0
   GEP Instruction FU's:            0
   Type Conversion FU's:            0
   Other:                           0

   ========= Pipeline Register Usage =============
   Total Number of Registers:       235
   Max Register Usage Per Cycle:    90
   Avg Register Usage Per Cycle:    33.924291
   Avg Register Size (Bytes):       5.841147

   ========= Memory Configuration =================
   Cache Bus Ports:                 0
   Shared Cache Size:               0kB
   Local Bus Ports:                 0
   Private SPM Size:                176kB
   Private Read Ports:              0
   Private Write Ports:             0
   Private Read Bus Width:          64
   Private Write Bus Width:         64
       Memory Reads:                0
       Memory Writes:               0
   ========= Power Analysis ======================
   FU Leakage Power:                1.178269 mW 
   FU Dynamic Power:                0.617392 mW 
   FU Total Power:                  1.795662 mW 

   Registers Leakage Power:          0.014185 mW 
   Registers Dynamic Power:          0.101057 mW 
       Register Reads (Bits):        348165
       Register Writes (Bits):       348168
   Registers Total Power:            0.115242 mW

   SPM Leakage Power:               0.089881 mW
   SPM Read Dynamic Power:          10.232207 mW
   SPM Write Dynamic Power:         5.980668 mW
   SPM Total Power:                 16.302756 mW

   Cache Leakage Power:             0.000000 mW
   Cache Read Dynamic Power:        0.000000 mW
   Cache Write Dynamic Power:       0.000000 mW
   Cache Total Power:               0.000000 mW

   Accelerator Power:               1.910904 mW
   Accelerator Power (SPM):         18.213660 mW
   Accelerator Power (Cache):       1.910904 mW

   ========= Area Analysis =======================
   FU Area:                         143348.187500 um^2 (0.143348 mm^2)
   Register Area:                   1152.968140 um^2 (0.001153 mm^2)
   SPM Area:                        3573.642862 um^2 (0.003574 mm^2)
   Cache Area:                      0.000000 um^2 (0.000000 mm^2)

   Accelerator Area:                144501.156250 um^2 (0.144501 mm^2)
   Accelerator Area (SPM):          148074.799112 um^2 (0.148075 mm^2)
   Accelerator Area (Cache):        144501.156250 um^2 (0.144501 mm^2)

   ========= SPM Resizing  =======================
   SPM Optimized Leakage Power:     0.003633 mW
   SPM Opt Area:                    364.024374 um^2

7344129500: system.acctest.elem_matrix0_dma: SRC:0x00000000820fe0c0, DST:0x0000000024000020, LEN:65536
7344345625: global: Timer #0 stopped at tick 7344345625. Duration: 14921875
7344361875: global: Number of accelerators running = 3
7344578750: global: Timer #0 started at tick 7344578750
7345116875: global: Timer #2 started at tick 7345116875
7345507500: global: Timer #2 stopped at tick 7345507500. Duration: 390625
7345808750: global: Timer #2 started at tick 7345808750
7346098125: global: Timer #2 stopped at tick 7346098125. Duration: 289375
7356209500: system.acctest.elem_matrix0_dma: Transfer completed in 12.08 us
7359485875: system.acctest.grayscale0_dma: SRC:0x000000002500c020, DST:0x0000000082959d40, LEN:65536
7359880000: global: Timer #0 stopped at tick 7359880000. Duration: 15301250
7359896250: global: Number of accelerators running = 3
7360031875: global: Timer #0 started at tick 7360031875
7360488750: global: Timer #1 started at tick 7360488750
7360961250: global: Timer #1 stopped at tick 7360961250. Duration: 472500
7362701250: global: Timer #0 stopped at tick 7362701250. Duration: 2669375
7362760625: global: Number of accelerators running = 3
7365831875: system.acctest.grayscale0_dma: Transfer completed in 6.346 us
7365918125: global: Timer #0 started at tick 7365918125
7366269375: global: Timer #1 started at tick 7366269375
7366413125: global: Timer #1 stopped at tick 7366413125. Duration: 143750
7366675000: global: DAG ID = 2
7366688750: global: Node ID = 1
7366706875: global: Node deadline difference = -13887
7366719375: global: Predicted memory time / byte = 0.0003198 us/byte
7366731875: global: Predicted memory time = 15.7188 us
7366744375: global: Predicted memory time / byte = 0.0003198 us/byte
7366756875: global: Predicted memory time = 20.9584 us
7366769375: global: Predicted memory time / byte = 0.000157267 us/byte
7366781875: global: Predicted memory time = 7.73 us
7366794375: global: Predicted memory time / byte = 9.729e-05 us/byte
7366806875: global: Predicted memory time = 6.376 us
7366819375: global: Predicted memory access size = 0
7366831875: global: Predicted memory access size = 49152
7366844375: global: Predicted memory access size = 0
7366856875: global: Predicted memory access size = 65536
7366988125: global: Timer #0 stopped at tick 7366988125. Duration: 1070000
7367004375: global: Number of accelerators running = 2
********************************************************************************
system.acctest.elem_matrix0.compute
   ========= Performance Analysis =============
   Setup Time:                      5.344770seconds
   Simulation Time:                 99.230377seconds
   System Clock:                    1.000000GHz
   Transistor Latency:              1ns
   Runtime:                         10932 cycles
   Runtime:                         10.932000 us
   Stalls:                          0 cycles
   Executed Nodes:                  10931 cycles

********************************************************************************
   ========= Performance Analysis =================
   Setup Time:                      5344769885.000000ns
   Simulation Time:                 99230377033.000000ns
   System Clock:                    1.000000GHz
   Transistor Latency:              0ns
   Runtime:                         10932 cycles
   Runtime:                         0.000001 seconds
   Stalls:                          0 cycles
       Load Only:                   0 cycles
       Store Only:                  0 cycles
       Compute Only:                0 cycles
       Compute & Store:             0 cycles
       Load & Store:                0 cycles
       Load & Compute:              0 cycles
       Load & Compute & Store:      0 cycles
   Executed Nodes:                  10931 cycles
       Load Only:                   0 cycles
       Store Only:                  5 cycles
       Compute Only:                1 cycles
       Compute & Store:             21 cycles
       Load & Store:                0 cycles
       Load & Compute:              7 cycles
       Load & Compute & Store:      10897 cycles

   ========= Runtime FU's ========= (Max | Avg) ===
   Counter FU's:                      32 | 0.046838
   Integer Add/Sub FU's:               0 | 0.000000
   Integer Mul/Div FU's:               0 | 0.000000
   Integer Shifter FU's:               0 | 0.000000
   Integer Bitwise FU's:               1 | 0.000091
   Floating Point Float Add/Sub:      34 | 0.044252
   Floating Point Double Add/Sub:      0 | 0.000000
   Floating Point Float Mul/Div:       0 | 0.000000
   Floating Point Double Mul/Div:      0 | 0.000000
   0 Cycle Compare FU's:             102 | 0.046974
   GEP Instruction FU's:              96 | 0.046835
   Type Conversion FU's:               7 | 0.006782

   ========= Static FU's ==========================
   Counter FU's:                    0
   Integer Add/Sub FU's:            0
   Integer Mul/Div FU's:            0
   Integer Shifter FU's:            0
   Integer Bitwise FU's:            0
   Floating Point Float Add/Sub:    0
   Floating Point Double Add/Sub:   0
   Floating Point Float Mul/Div:    0
   Floating Point Double Mul/Div:   0
   0 Cycle Compare FU's:            0
   GEP Instruction FU's:            0
   Type Conversion FU's:            0
   Other:                           0

   ========= Pipeline Register Usage =============
   Total Number of Registers:       5641
   Max Register Usage Per Cycle:    138
   Avg Register Usage Per Cycle:    12.130992
   Avg Register Size (Bytes):       5.980606

   ========= Memory Configuration =================
   Cache Bus Ports:                 0
   Shared Cache Size:               0kB
   Local Bus Ports:                 0
   Private SPM Size:                256kB
   Private Read Ports:              0
   Private Write Ports:             0
   Private Read Bus Width:          64
   Private Write Bus Width:         64
       Memory Reads:                0
       Memory Writes:               0
   ========= Power Analysis ======================
   FU Leakage Power:                0.519269 mW 
   FU Dynamic Power:                0.154621 mW 
   FU Total Power:                  0.673890 mW 

   Registers Leakage Power:          0.005281 mW 
   Registers Dynamic Power:          0.015326 mW 
       Register Reads (Bits):        132616
       Register Writes (Bits):       133658
   Registers Total Power:            0.020607 mW

   SPM Leakage Power:               0.104100 mW
   SPM Read Dynamic Power:          3.776796 mW
   SPM Write Dynamic Power:         2.457440 mW
   SPM Total Power:                 6.338336 mW

   Cache Leakage Power:             0.000000 mW
   Cache Read Dynamic Power:        0.000000 mW
   Cache Write Dynamic Power:       0.000000 mW
   Cache Total Power:               0.000000 mW

   Accelerator Power:               0.694497 mW
   Accelerator Power (SPM):         7.032833 mW
   Accelerator Power (Cache):       0.694497 mW

   ========= Area Analysis =======================
   FU Area:                         70212.562500 um^2 (0.070213 mm^2)
   Register Area:                   429.271088 um^2 (0.000429 mm^2)
   SPM Area:                        2177.365505 um^2 (0.002177 mm^2)
   Cache Area:                      0.000000 um^2 (0.000000 mm^2)

   Accelerator Area:                70641.835938 um^2 (0.070642 mm^2)
   Accelerator Area (SPM):          72819.201442 um^2 (0.072819 mm^2)
   Accelerator Area (Cache):        70641.835938 um^2 (0.070642 mm^2)

   ========= SPM Resizing  =======================
   SPM Optimized Leakage Power:     0.004248 mW
   SPM Opt Area:                    178.524902 um^2

7373403750: global: Timer #0 started at tick 7373403750
7373706250: global: Timer #2 started at tick 7373706250
7374087500: global: Timer #2 stopped at tick 7374087500. Duration: 381250
7374333750: global: DAG ID = 1
7374347500: global: Node ID = 6
7374360625: global: Node deadline difference = -2251
7374373125: global: Predicted memory time / byte = 0.000261221 us/byte
7374385625: global: Predicted memory time = 34.2388 us
7374398125: global: Predicted memory time / byte = 0.000261221 us/byte
7374410625: global: Predicted memory time = 17.1194 us
7374423125: global: Predicted memory time / byte = 0.000242737 us/byte
7374435625: global: Predicted memory time = 15.908 us
7374448125: global: Predicted memory time / byte = 0 us/byte
7374460625: global: Predicted memory time = 0 us
7374473125: global: Predicted memory access size = 0
7374485625: global: Predicted memory access size = 65536
7374498125: global: Predicted memory access size = 0
7374510625: global: Predicted memory access size = 0
7375928750: global: Timer #0 stopped at tick 7375928750. Duration: 2525000
7375945000: global: Number of accelerators running = 2
********************************************************************************
system.acctest.elem_matrix0.compute
   ========= Performance Analysis =============
   Setup Time:                      6.334611seconds
   Simulation Time:                 75.719945seconds
   System Clock:                    1.000000GHz
   Transistor Latency:              1ns
   Runtime:                         8316 cycles
   Runtime:                         8.316000 us
   Stalls:                          82 cycles
   Executed Nodes:                  8233 cycles

********************************************************************************
   ========= Performance Analysis =================
   Setup Time:                      6334610979.000000ns
   Simulation Time:                 75719945356.000000ns
   System Clock:                    1.000000GHz
   Transistor Latency:              0ns
   Runtime:                         8316 cycles
   Runtime:                         0.000001 seconds
   Stalls:                          82 cycles
       Load Only:                   0 cycles
       Store Only:                  77 cycles
       Compute Only:                0 cycles
       Compute & Store:             5 cycles
       Load & Store:                0 cycles
       Load & Compute:              0 cycles
       Load & Compute & Store:      0 cycles
   Executed Nodes:                  8233 cycles
       Load Only:                   0 cycles
       Store Only:                  11 cycles
       Compute Only:                1827 cycles
       Compute & Store:             3453 cycles
       Load & Store:                0 cycles
       Load & Compute:              774 cycles
       Load & Compute & Store:      2168 cycles

   ========= Runtime FU's ========= (Max | Avg) ===
   Counter FU's:                      32 | 0.061572
   Integer Add/Sub FU's:               0 | 0.000000
   Integer Mul/Div FU's:               0 | 0.000000
   Integer Shifter FU's:               0 | 0.000000
   Integer Bitwise FU's:               1 | 0.000120
   Floating Point Float Add/Sub:      80 | 0.302014
   Floating Point Double Add/Sub:      0 | 0.000000
   Floating Point Float Mul/Div:      35 | 0.056511
   Floating Point Double Mul/Div:      0 | 0.000000
   0 Cycle Compare FU's:              15 | 0.024828
   GEP Instruction FU's:              64 | 0.061568
   Type Conversion FU's:              66 | 0.120964

   ========= Static FU's ==========================
   Counter FU's:                    0
   Integer Add/Sub FU's:            0
   Integer Mul/Div FU's:            0
   Integer Shifter FU's:            0
   Integer Bitwise FU's:            0
   Floating Point Float Add/Sub:    0
   Floating Point Double Add/Sub:   0
   Floating Point Float Mul/Div:    0
   Floating Point Double Mul/Div:   0
   0 Cycle Compare FU's:            0
   GEP Instruction FU's:            0
   Type Conversion FU's:            0
   Other:                           0

   ========= Pipeline Register Usage =============
   Total Number of Registers:       5641
   Max Register Usage Per Cycle:    126
   Avg Register Usage Per Cycle:    27.706590
   Avg Register Size (Bytes):       5.993295

   ========= Memory Configuration =================
   Cache Bus Ports:                 0
   Shared Cache Size:               0kB
   Local Bus Ports:                 0
   Private SPM Size:                256kB
   Private Read Ports:              0
   Private Write Ports:             0
   Private Read Bus Width:          64
   Private Write Bus Width:         64
       Memory Reads:                0
       Memory Writes:               0
   ========= Power Analysis ======================
   FU Leakage Power:                1.265749 mW 
   FU Dynamic Power:                1.166708 mW 
   FU Total Power:                  2.432457 mW 

   Registers Leakage Power:          0.011908 mW 
   Registers Dynamic Power:          0.045645 mW 
       Register Reads (Bits):        230408
       Register Writes (Bits):       231961
   Registers Total Power:            0.057553 mW

   SPM Leakage Power:               0.104100 mW
   SPM Read Dynamic Power:          4.599549 mW
   SPM Write Dynamic Power:         2.880682 mW
   SPM Total Power:                 7.584331 mW

   Cache Leakage Power:             0.000000 mW
   Cache Read Dynamic Power:        0.000000 mW
   Cache Write Dynamic Power:       0.000000 mW
   Cache Total Power:               0.000000 mW

   Accelerator Power:               2.490010 mW
   Accelerator Power (SPM):         10.074342 mW
   Accelerator Power (Cache):       2.490010 mW

   ========= Area Analysis =======================
   FU Area:                         170559.593750 um^2 (0.170560 mm^2)
   Register Area:                   967.909180 um^2 (0.000968 mm^2)
   SPM Area:                        2177.365505 um^2 (0.002177 mm^2)
   Cache Area:                      0.000000 um^2 (0.000000 mm^2)

   Accelerator Area:                171527.500000 um^2 (0.171527 mm^2)
   Accelerator Area (SPM):          173704.865505 um^2 (0.173705 mm^2)
   Accelerator Area (Cache):        171527.500000 um^2 (0.171527 mm^2)

   ========= SPM Resizing  =======================
   SPM Optimized Leakage Power:     0.003887 mW
   SPM Opt Area:                    172.850411 um^2

7384191250: global: Timer #0 started at tick 7384191250
7384490625: global: Timer #2 started at tick 7384490625
7384888750: global: Timer #2 stopped at tick 7384888750. Duration: 398125
7385131875: global: DAG ID = 1
7385145625: global: Node ID = 7
7385158750: global: Node deadline difference = -2279
7385171250: global: Predicted memory time / byte = 0.000216773 us/byte
7385183750: global: Predicted memory time = 14.2064 us
7385196250: global: Predicted memory time / byte = 0.000216773 us/byte
7385208750: global: Predicted memory time = 14.2064 us
7385221250: global: Predicted memory time / byte = 0 us/byte
7385233750: global: Predicted memory time = 0 us
7385246250: global: Predicted memory time / byte = 0 us/byte
7385258750: global: Predicted memory time = 0 us
7385271250: global: Predicted memory access size = 0
7385283750: global: Predicted memory access size = 0
7385296250: global: Predicted memory access size = 0
7385308750: global: Predicted memory access size = 0
7398805875: system.acctest.elem_matrix0_dma: SRC:0x000000008222e400, DST:0x0000000024010020, LEN:65536
7399017500: global: Timer #0 stopped at tick 7399017500. Duration: 14826250
7399033750: global: Number of accelerators running = 2
7410720875: system.acctest.elem_matrix0_dma: Transfer completed in 11.915 us
7410884375: global: Timer #0 started at tick 7410884375
7411286250: global: Timer #1 started at tick 7411286250
7411672500: global: Timer #1 stopped at tick 7411672500. Duration: 386250
7413246250: global: Timer #0 stopped at tick 7413246250. Duration: 2361875
7413262500: global: Number of accelerators running = 2
********************************************************************************
system.acctest.elem_matrix0.compute
   ========= Performance Analysis =============
   Setup Time:                      4.995252seconds
   Simulation Time:                 100.538802seconds
   System Clock:                    1.000000GHz
   Transistor Latency:              1ns
   Runtime:                         10932 cycles
   Runtime:                         10.932000 us
   Stalls:                          1 cycles
   Executed Nodes:                  10930 cycles

********************************************************************************
   ========= Performance Analysis =================
   Setup Time:                      4995252101.000000ns
   Simulation Time:                 100538802405.000000ns
   System Clock:                    1.000000GHz
   Transistor Latency:              0ns
   Runtime:                         10932 cycles
   Runtime:                         0.000001 seconds
   Stalls:                          1 cycles
       Load Only:                   0 cycles
       Store Only:                  1 cycles
       Compute Only:                0 cycles
       Compute & Store:             0 cycles
       Load & Store:                0 cycles
       Load & Compute:              0 cycles
       Load & Compute & Store:      0 cycles
   Executed Nodes:                  10930 cycles
       Load Only:                   0 cycles
       Store Only:                  4 cycles
       Compute Only:                1 cycles
       Compute & Store:             21 cycles
       Load & Store:                0 cycles
       Load & Compute:              6 cycles
       Load & Compute & Store:      10898 cycles

   ========= Runtime FU's ========= (Max | Avg) ===
   Counter FU's:                      32 | 0.046838
   Integer Add/Sub FU's:               0 | 0.000000
   Integer Mul/Div FU's:               0 | 0.000000
   Integer Shifter FU's:               0 | 0.000000
   Integer Bitwise FU's:               1 | 0.000091
   Floating Point Float Add/Sub:       0 | 0.000000
   Floating Point Double Add/Sub:      0 | 0.000000
   Floating Point Float Mul/Div:      34 | 0.044252
   Floating Point Double Mul/Div:      0 | 0.000000
   0 Cycle Compare FU's:             102 | 0.046945
   GEP Instruction FU's:              96 | 0.046835
   Type Conversion FU's:               7 | 0.006782

   ========= Static FU's ==========================
   Counter FU's:                    0
   Integer Add/Sub FU's:            0
   Integer Mul/Div FU's:            0
   Integer Shifter FU's:            0
   Integer Bitwise FU's:            0
   Floating Point Float Add/Sub:    0
   Floating Point Double Add/Sub:   0
   Floating Point Float Mul/Div:    0
   Floating Point Double Mul/Div:   0
   0 Cycle Compare FU's:            0
   GEP Instruction FU's:            0
   Type Conversion FU's:            0
   Other:                           0

   ========= Pipeline Register Usage =============
   Total Number of Registers:       5641
   Max Register Usage Per Cycle:    137
   Avg Register Usage Per Cycle:    12.130992
   Avg Register Size (Bytes):       5.980606

   ========= Memory Configuration =================
   Cache Bus Ports:                 0
   Shared Cache Size:               0kB
   Local Bus Ports:                 0
   Private SPM Size:                256kB
   Private Read Ports:              0
   Private Write Ports:             0
   Private Read Bus Width:          64
   Private Write Bus Width:         64
       Memory Reads:                0
       Memory Writes:               0
   ========= Power Analysis ======================
   FU Leakage Power:                0.045377 mW 
   FU Dynamic Power:                0.142576 mW 
   FU Total Power:                  0.187953 mW 

   Registers Leakage Power:          0.005281 mW 
   Registers Dynamic Power:          0.015326 mW 
       Register Reads (Bits):        132616
       Register Writes (Bits):       133658
   Registers Total Power:            0.020607 mW

   SPM Leakage Power:               0.104100 mW
   SPM Read Dynamic Power:          4.784107 mW
   SPM Write Dynamic Power:         3.448926 mW
   SPM Total Power:                 8.337133 mW

   Cache Leakage Power:             0.000000 mW
   Cache Read Dynamic Power:        0.000000 mW
   Cache Write Dynamic Power:       0.000000 mW
   Cache Total Power:               0.000000 mW

   Accelerator Power:               0.208559 mW
   Accelerator Power (SPM):         8.545693 mW
   Accelerator Power (Cache):       0.208559 mW

   ========= Area Analysis =======================
   FU Area:                         5472.068359 um^2 (0.005472 mm^2)
   Register Area:                   429.271088 um^2 (0.000429 mm^2)
   SPM Area:                        2177.365505 um^2 (0.002177 mm^2)
   Cache Area:                      0.000000 um^2 (0.000000 mm^2)

   Accelerator Area:                5901.339355 um^2 (0.005901 mm^2)
   Accelerator Area (SPM):          8078.704860 um^2 (0.008079 mm^2)
   Accelerator Area (Cache):        5901.339355 um^2 (0.005901 mm^2)

   ========= SPM Resizing  =======================
   SPM Optimized Leakage Power:     0.004248 mW
   SPM Opt Area:                    178.524902 um^2

7424012500: global: Timer #0 started at tick 7424012500
7424393125: global: Timer #2 started at tick 7424393125
7424737500: global: Timer #2 stopped at tick 7424737500. Duration: 344375
7424983750: global: DAG ID = 1
7424997500: global: Node ID = 8
7425010625: global: Node deadline difference = -2297
7425023125: global: Predicted memory time / byte = 0.000216773 us/byte
7425035625: global: Predicted memory time = 28.4128 us
7425048125: global: Predicted memory time / byte = 0.000216773 us/byte
7425060625: global: Predicted memory time = 14.2064 us
7425073125: global: Predicted memory time / byte = 0.000183029 us/byte
7425085625: global: Predicted memory time = 11.995 us
7425098125: global: Predicted memory time / byte = 0 us/byte
7425110625: global: Predicted memory time = 0 us
7425123125: global: Predicted memory access size = 0
7425135625: global: Predicted memory access size = 65536
7425148125: global: Predicted memory access size = 0
7425160625: global: Predicted memory access size = 0
7438545875: system.acctest.elem_matrix0_dma: SRC:0x000000008212e240, DST:0x0000000024000020, LEN:65536
7438748125: global: Timer #0 stopped at tick 7438748125. Duration: 14735625
7438764375: global: Number of accelerators running = 2
7450527875: system.acctest.elem_matrix0_dma: Transfer completed in 11.982 us
7450691250: global: Timer #0 started at tick 7450691250
7451138125: global: Timer #1 started at tick 7451138125
7451529375: global: Timer #1 stopped at tick 7451529375. Duration: 391250
7452981250: global: Timer #0 stopped at tick 7452981250. Duration: 2290000
7452997500: global: Number of accelerators running = 2
********************************************************************************
system.acctest.elem_matrix0.compute
   ========= Performance Analysis =============
   Setup Time:                      5.123103seconds
   Simulation Time:                 97.092656seconds
   System Clock:                    1.000000GHz
   Transistor Latency:              1ns
   Runtime:                         10932 cycles
   Runtime:                         10.932000 us
   Stalls:                          0 cycles
   Executed Nodes:                  10931 cycles

********************************************************************************
   ========= Performance Analysis =================
   Setup Time:                      5123102833.000000ns
   Simulation Time:                 97092655762.000000ns
   System Clock:                    1.000000GHz
   Transistor Latency:              0ns
   Runtime:                         10932 cycles
   Runtime:                         0.000001 seconds
   Stalls:                          0 cycles
       Load Only:                   0 cycles
       Store Only:                  0 cycles
       Compute Only:                0 cycles
       Compute & Store:             0 cycles
       Load & Store:                0 cycles
       Load & Compute:              0 cycles
       Load & Compute & Store:      0 cycles
   Executed Nodes:                  10931 cycles
       Load Only:                   0 cycles
       Store Only:                  5 cycles
       Compute Only:                1 cycles
       Compute & Store:             21 cycles
       Load & Store:                0 cycles
       Load & Compute:              7 cycles
       Load & Compute & Store:      10897 cycles

   ========= Runtime FU's ========= (Max | Avg) ===
   Counter FU's:                      32 | 0.046838
   Integer Add/Sub FU's:               0 | 0.000000
   Integer Mul/Div FU's:               0 | 0.000000
   Integer Shifter FU's:               0 | 0.000000
   Integer Bitwise FU's:               1 | 0.000091
   Floating Point Float Add/Sub:      34 | 0.044252
   Floating Point Double Add/Sub:      0 | 0.000000
   Floating Point Float Mul/Div:       0 | 0.000000
   Floating Point Double Mul/Div:      0 | 0.000000
   0 Cycle Compare FU's:             102 | 0.046974
   GEP Instruction FU's:              96 | 0.046835
   Type Conversion FU's:               7 | 0.006782

   ========= Static FU's ==========================
   Counter FU's:                    0
   Integer Add/Sub FU's:            0
   Integer Mul/Div FU's:            0
   Integer Shifter FU's:            0
   Integer Bitwise FU's:            0
   Floating Point Float Add/Sub:    0
   Floating Point Double Add/Sub:   0
   Floating Point Float Mul/Div:    0
   Floating Point Double Mul/Div:   0
   0 Cycle Compare FU's:            0
   GEP Instruction FU's:            0
   Type Conversion FU's:            0
   Other:                           0

   ========= Pipeline Register Usage =============
   Total Number of Registers:       5641
   Max Register Usage Per Cycle:    138
   Avg Register Usage Per Cycle:    12.130992
   Avg Register Size (Bytes):       5.980606

   ========= Memory Configuration =================
   Cache Bus Ports:                 0
   Shared Cache Size:               0kB
   Local Bus Ports:                 0
   Private SPM Size:                256kB
   Private Read Ports:              0
   Private Write Ports:             0
   Private Read Bus Width:          64
   Private Write Bus Width:         64
       Memory Reads:                0
       Memory Writes:               0
   ========= Power Analysis ======================
   FU Leakage Power:                0.519269 mW 
   FU Dynamic Power:                0.154621 mW 
   FU Total Power:                  0.673890 mW 

   Registers Leakage Power:          0.005281 mW 
   Registers Dynamic Power:          0.015326 mW 
       Register Reads (Bits):        132616
       Register Writes (Bits):       133658
   Registers Total Power:            0.020607 mW

   SPM Leakage Power:               0.104100 mW
   SPM Read Dynamic Power:          5.190014 mW
   SPM Write Dynamic Power:         3.846212 mW
   SPM Total Power:                 9.140327 mW

   Cache Leakage Power:             0.000000 mW
   Cache Read Dynamic Power:        0.000000 mW
   Cache Write Dynamic Power:       0.000000 mW
   Cache Total Power:               0.000000 mW

   Accelerator Power:               0.694497 mW
   Accelerator Power (SPM):         9.834824 mW
   Accelerator Power (Cache):       0.694497 mW

   ========= Area Analysis =======================
   FU Area:                         70212.562500 um^2 (0.070213 mm^2)
   Register Area:                   429.271088 um^2 (0.000429 mm^2)
   SPM Area:                        2177.365505 um^2 (0.002177 mm^2)
   Cache Area:                      0.000000 um^2 (0.000000 mm^2)

   Accelerator Area:                70641.835938 um^2 (0.070642 mm^2)
   Accelerator Area (SPM):          72819.201442 um^2 (0.072819 mm^2)
   Accelerator Area (Cache):        70641.835938 um^2 (0.070642 mm^2)

   ========= SPM Resizing  =======================
   SPM Optimized Leakage Power:     0.004248 mW
   SPM Opt Area:                    178.524902 um^2

7463747500: global: Timer #0 started at tick 7463747500
7464041250: global: Timer #2 started at tick 7464041250
7464395625: global: Timer #2 stopped at tick 7464395625. Duration: 354375
7477602375: system.acctest.elem_matrix0_dma: SRC:0x0000000024010020, DST:0x00000000821ce240, LEN:65536
7477971875: global: Timer #0 stopped at tick 7477971875. Duration: 14224375
7477988125: global: Number of accelerators running = 2
7483882375: system.acctest.elem_matrix0_dma: Transfer completed in 6.28 us
7483958125: global: Timer #0 started at tick 7483958125
7484275000: global: Timer #1 started at tick 7484275000
7484414375: global: Timer #1 stopped at tick 7484414375. Duration: 139375
7484626250: global: DAG ID = 1
7484640000: global: Node ID = 9
7484658125: global: Node deadline difference = -2294
7484670625: global: Predicted memory time / byte = 0.000208337 us/byte
7484683125: global: Predicted memory time = 27.3071 us
7484695625: global: Predicted memory time / byte = 0.000208337 us/byte
7484708125: global: Predicted memory time = 13.6536 us
7484720625: global: Predicted memory time / byte = 0.000184723 us/byte
7484733125: global: Predicted memory time = 12.106 us
7484745625: global: Predicted memory time / byte = 9.56879e-05 us/byte
7484758125: global: Predicted memory time = 6.271 us
7484770625: global: Predicted memory access size = 0
7484783125: global: Predicted memory access size = 65536
7484795625: global: Predicted memory access size = 0
7484808125: global: Predicted memory access size = 65536
7498279500: system.acctest.elem_matrix0_dma: SRC:0x000000008222e400, DST:0x0000000024000020, LEN:65536
7498493750: global: Timer #0 stopped at tick 7498493750. Duration: 14535625
7498510000: global: Number of accelerators running = 2
7510234500: system.acctest.elem_matrix0_dma: Transfer completed in 11.955 us
7510398125: global: Timer #0 started at tick 7510398125
7510834375: global: Timer #1 started at tick 7510834375
7511218750: global: Timer #1 stopped at tick 7511218750. Duration: 384375
7524665875: system.acctest.elem_matrix0_dma: SRC:0x00000000820ce0c0, DST:0x0000000024010020, LEN:65536
7524911250: global: Timer #0 stopped at tick 7524911250. Duration: 14513125
7524927500: global: Number of accelerators running = 2
7536615875: system.acctest.elem_matrix0_dma: Transfer completed in 11.95 us
7536703125: global: Timer #0 started at tick 7536703125
7537189375: global: Timer #1 started at tick 7537189375
7537483125: global: Timer #1 stopped at tick 7537483125. Duration: 293750
7539035625: global: Timer #0 stopped at tick 7539035625. Duration: 2332500
7539051875: global: Number of accelerators running = 2
********************************************************************************
system.acctest.elem_matrix0.compute
   ========= Performance Analysis =============
   Setup Time:                      5.622809seconds
   Simulation Time:                 94.732549seconds
   System Clock:                    1.000000GHz
   Transistor Latency:              1ns
   Runtime:                         10932 cycles
   Runtime:                         10.932000 us
   Stalls:                          1 cycles
   Executed Nodes:                  10930 cycles

********************************************************************************
   ========= Performance Analysis =================
   Setup Time:                      5622809125.000000ns
   Simulation Time:                 94732548773.000000ns
   System Clock:                    1.000000GHz
   Transistor Latency:              0ns
   Runtime:                         10932 cycles
   Runtime:                         0.000001 seconds
   Stalls:                          1 cycles
       Load Only:                   0 cycles
       Store Only:                  1 cycles
       Compute Only:                0 cycles
       Compute & Store:             0 cycles
       Load & Store:                0 cycles
       Load & Compute:              0 cycles
       Load & Compute & Store:      0 cycles
   Executed Nodes:                  10930 cycles
       Load Only:                   0 cycles
       Store Only:                  4 cycles
       Compute Only:                1 cycles
       Compute & Store:             21 cycles
       Load & Store:                0 cycles
       Load & Compute:              6 cycles
       Load & Compute & Store:      10898 cycles

   ========= Runtime FU's ========= (Max | Avg) ===
   Counter FU's:                      32 | 0.046838
   Integer Add/Sub FU's:               0 | 0.000000
   Integer Mul/Div FU's:               0 | 0.000000
   Integer Shifter FU's:               0 | 0.000000
   Integer Bitwise FU's:               1 | 0.000091
   Floating Point Float Add/Sub:       0 | 0.000000
   Floating Point Double Add/Sub:      0 | 0.000000
   Floating Point Float Mul/Div:      34 | 0.044252
   Floating Point Double Mul/Div:      0 | 0.000000
   0 Cycle Compare FU's:             102 | 0.046945
   GEP Instruction FU's:              96 | 0.046835
   Type Conversion FU's:               7 | 0.006782

   ========= Static FU's ==========================
   Counter FU's:                    0
   Integer Add/Sub FU's:            0
   Integer Mul/Div FU's:            0
   Integer Shifter FU's:            0
   Integer Bitwise FU's:            0
   Floating Point Float Add/Sub:    0
   Floating Point Double Add/Sub:   0
   Floating Point Float Mul/Div:    0
   Floating Point Double Mul/Div:   0
   0 Cycle Compare FU's:            0
   GEP Instruction FU's:            0
   Type Conversion FU's:            0
   Other:                           0

   ========= Pipeline Register Usage =============
   Total Number of Registers:       5641
   Max Register Usage Per Cycle:    137
   Avg Register Usage Per Cycle:    12.130992
   Avg Register Size (Bytes):       5.980606

   ========= Memory Configuration =================
   Cache Bus Ports:                 0
   Shared Cache Size:               0kB
   Local Bus Ports:                 0
   Private SPM Size:                256kB
   Private Read Ports:              0
   Private Write Ports:             0
   Private Read Bus Width:          64
   Private Write Bus Width:         64
       Memory Reads:                0
       Memory Writes:               0
   ========= Power Analysis ======================
   FU Leakage Power:                0.045377 mW 
   FU Dynamic Power:                0.142576 mW 
   FU Total Power:                  0.187953 mW 

   Registers Leakage Power:          0.005281 mW 
   Registers Dynamic Power:          0.015326 mW 
       Register Reads (Bits):        132616
       Register Writes (Bits):       133658
   Registers Total Power:            0.020607 mW

   SPM Leakage Power:               0.104100 mW
   SPM Read Dynamic Power:          5.599688 mW
   SPM Write Dynamic Power:         4.937352 mW
   SPM Total Power:                 10.641140 mW

   Cache Leakage Power:             0.000000 mW
   Cache Read Dynamic Power:        0.000000 mW
   Cache Write Dynamic Power:       0.000000 mW
   Cache Total Power:               0.000000 mW

   Accelerator Power:               0.208559 mW
   Accelerator Power (SPM):         10.849700 mW
   Accelerator Power (Cache):       0.208559 mW

   ========= Area Analysis =======================
   FU Area:                         5472.068359 um^2 (0.005472 mm^2)
   Register Area:                   429.271088 um^2 (0.000429 mm^2)
   SPM Area:                        2177.365505 um^2 (0.002177 mm^2)
   Cache Area:                      0.000000 um^2 (0.000000 mm^2)

   Accelerator Area:                5901.339355 um^2 (0.005901 mm^2)
   Accelerator Area (SPM):          8078.704860 um^2 (0.008079 mm^2)
   Accelerator Area (Cache):        5901.339355 um^2 (0.005901 mm^2)

   ========= SPM Resizing  =======================
   SPM Optimized Leakage Power:     0.004248 mW
   SPM Opt Area:                    178.524902 um^2

7549812500: global: Timer #0 started at tick 7549812500
7550106250: global: Timer #2 started at tick 7550106250
7550396250: global: Timer #2 stopped at tick 7550396250. Duration: 290000
[...]
       Load & Compute:              7 cycles
       Load & Compute & Store:      10897 cycles

   ========= Runtime FU's ========= (Max | Avg) ===
   Counter FU's:                      32 | 0.046838
   Integer Add/Sub FU's:               0 | 0.000000
   Integer Mul/Div FU's:               0 | 0.000000
   Integer Shifter FU's:               0 | 0.000000
   Integer Bitwise FU's:               1 | 0.000091
   Floating Point Float Add/Sub:      34 | 0.044252
   Floating Point Double Add/Sub:      0 | 0.000000
   Floating Point Float Mul/Div:       0 | 0.000000
   Floating Point Double Mul/Div:      0 | 0.000000
   0 Cycle Compare FU's:             102 | 0.046974
   GEP Instruction FU's:              96 | 0.046835
   Type Conversion FU's:               7 | 0.006782

   ========= Static FU's ==========================
   Counter FU's:                    0
   Integer Add/Sub FU's:            0
   Integer Mul/Div FU's:            0
   Integer Shifter FU's:            0
   Integer Bitwise FU's:            0
   Floating Point Float Add/Sub:    0
   Floating Point Double Add/Sub:   0
   Floating Point Float Mul/Div:    0
   Floating Point Double Mul/Div:   0
   0 Cycle Compare FU's:            0
   GEP Instruction FU's:            0
   Type Conversion FU's:            0
   Other:                           0

   ========= Pipeline Register Usage =============
   Total Number of Registers:       5641
   Max Register Usage Per Cycle:    138
   Avg Register Usage Per Cycle:    12.130992
   Avg Register Size (Bytes):       5.980606

   ========= Memory Configuration =================
   Cache Bus Ports:                 0
   Shared Cache Size:               0kB
   Local Bus Ports:                 0
   Private SPM Size:                256kB
   Private Read Ports:              0
   Private Write Ports:             0
   Private Read Bus Width:          64
   Private Write Bus Width:         64
       Memory Reads:                0
       Memory Writes:               0
   ========= Power Analysis ======================
   FU Leakage Power:                0.519269 mW 
   FU Dynamic Power:                0.154621 mW 
   FU Total Power:                  0.673890 mW 

   Registers Leakage Power:          0.005281 mW 
   Registers Dynamic Power:          0.015326 mW 
       Register Reads (Bits):        132616
       Register Writes (Bits):       133658
   Registers Total Power:            0.020607 mW

   SPM Leakage Power:               0.104100 mW
   SPM Read Dynamic Power:          34.711730 mW
   SPM Write Dynamic Power:         26.246695 mW
   SPM Total Power:                 61.062525 mW

   Cache Leakage Power:             0.000000 mW
   Cache Read Dynamic Power:        0.000000 mW
   Cache Write Dynamic Power:       0.000000 mW
   Cache Total Power:               0.000000 mW

   Accelerator Power:               0.694497 mW
   Accelerator Power (SPM):         61.757022 mW
   Accelerator Power (Cache):       0.694497 mW

   ========= Area Analysis =======================
   FU Area:                         70212.562500 um^2 (0.070213 mm^2)
   Register Area:                   429.271088 um^2 (0.000429 mm^2)
   SPM Area:                        2177.365505 um^2 (0.002177 mm^2)
   Cache Area:                      0.000000 um^2 (0.000000 mm^2)

   Accelerator Area:                70641.835938 um^2 (0.070642 mm^2)
   Accelerator Area (SPM):          72819.201442 um^2 (0.072819 mm^2)
   Accelerator Area (Cache):        70641.835938 um^2 (0.070642 mm^2)

   ========= SPM Resizing  =======================
   SPM Optimized Leakage Power:     0.004248 mW
   SPM Opt Area:                    178.524902 um^2

28074307500: global: Timer #0 started at tick 28074307500
28087608750: system.acctest.elem_matrix0_dma: SRC:0x0000000024020020, DST:0x0000000082937c40, LEN:65536
28087958125: global: Timer #0 stopped at tick 28087958125. Duration: 13650625
28087974375: global: Number of accelerators running = 1
28093900750: system.acctest.elem_matrix0_dma: Transfer completed in 6.292 us
28093977500: global: Timer #0 started at tick 28093977500
28094292500: global: Timer #1 started at tick 28094292500
28094410625: global: Timer #1 stopped at tick 28094410625. Duration: 118125
28094621875: global: DAG ID = 1
28094635625: global: Node ID = 119
28094659375: global: DAG execution time = 20904
28094672500: global: DAG deadline difference = 13904
28094689375: global: Node deadline difference = 13904
28094701875: global: Predicted memory time / byte = 0.000161653 us/byte
28094714375: global: Predicted memory time = 21.1881 us
28094726875: global: Predicted memory time / byte = 0.000161653 us/byte
28094739375: global: Predicted memory time = 10.5941 us
28094751875: global: Predicted memory time / byte = 0.000184586 us/byte
28094764375: global: Predicted memory time = 24.194 us
28094776875: global: Predicted memory time / byte = 9.57642e-05 us/byte
28094789375: global: Predicted memory time = 6.276 us
28094801875: global: Predicted memory access size = 0
28094814375: global: Predicted memory access size = 131072
28094826875: global: Predicted memory access size = 0
28094839375: global: Predicted memory access size = 65536
28108160875: system.acctest.elem_matrix0_dma: SRC:0x000000008342af40, DST:0x0000000024000020, LEN:65536
28108375000: global: Timer #0 stopped at tick 28108375000. Duration: 14397500
28108391250: global: Number of accelerators running = 1
28120101875: system.acctest.elem_matrix0_dma: Transfer completed in 11.941 us
28120264375: global: Timer #0 started at tick 28120264375
28120746250: global: Timer #1 started at tick 28120746250
28121122500: global: Timer #1 stopped at tick 28121122500. Duration: 376250
28122526875: global: Timer #0 stopped at tick 28122526875. Duration: 2262500
28122543125: global: Number of accelerators running = 1
********************************************************************************
system.acctest.elem_matrix0.compute
   ========= Performance Analysis =============
   Setup Time:                      5.346265seconds
   Simulation Time:                 60.942541seconds
   System Clock:                    1.000000GHz
   Transistor Latency:              1ns
   Runtime:                         8344 cycles
   Runtime:                         8.344000 us
   Stalls:                          106 cycles
   Executed Nodes:                  8237 cycles

********************************************************************************
   ========= Performance Analysis =================
   Setup Time:                      5346265201.000000ns
   Simulation Time:                 60942541206.000000ns
   System Clock:                    1.000000GHz
   Transistor Latency:              0ns
   Runtime:                         8344 cycles
   Runtime:                         0.000001 seconds
   Stalls:                          106 cycles
       Load Only:                   0 cycles
       Store Only:                  101 cycles
       Compute Only:                0 cycles
       Compute & Store:             5 cycles
       Load & Store:                0 cycles
       Load & Compute:              0 cycles
       Load & Compute & Store:      0 cycles
   Executed Nodes:                  8237 cycles
       Load Only:                   0 cycles
       Store Only:                  11 cycles
       Compute Only:                2086 cycles
       Compute & Store:             3860 cycles
       Load & Store:                0 cycles
       Load & Compute:              519 cycles
       Load & Compute & Store:      1761 cycles

   ========= Runtime FU's ========= (Max | Avg) ===
   Counter FU's:                      32 | 0.061365
   Integer Add/Sub FU's:               0 | 0.000000
   Integer Mul/Div FU's:               0 | 0.000000
   Integer Shifter FU's:               0 | 0.000000
   Integer Bitwise FU's:               1 | 0.000120
   Floating Point Float Add/Sub:      76 | 0.476229
   Floating Point Double Add/Sub:      0 | 0.000000
   Floating Point Float Mul/Div:      53 | 0.193968
   Floating Point Double Mul/Div:      0 | 0.000000
   0 Cycle Compare FU's:              15 | 0.024744
   GEP Instruction FU's:              64 | 0.061361
   Type Conversion FU's:              60 | 0.132426

   ========= Static FU's ==========================
   Counter FU's:                    0
   Integer Add/Sub FU's:            0
   Integer Mul/Div FU's:            0
   Integer Shifter FU's:            0
   Integer Bitwise FU's:            0
   Floating Point Float Add/Sub:    0
   Floating Point Double Add/Sub:   0
   Floating Point Float Mul/Div:    0
   Floating Point Double Mul/Div:   0
   0 Cycle Compare FU's:            0
   GEP Instruction FU's:            0
   Type Conversion FU's:            0
   Other:                           0

   ========= Pipeline Register Usage =============
   Total Number of Registers:       5641
   Max Register Usage Per Cycle:    131
   Avg Register Usage Per Cycle:    31.540748
   Avg Register Size (Bytes):       5.745110

   ========= Memory Configuration =================
   Cache Bus Ports:                 0
   Shared Cache Size:               0kB
   Local Bus Ports:                 0
   Private SPM Size:                256kB
   Private Read Ports:              0
   Private Write Ports:             0
   Private Read Bus Width:          64
   Private Write Bus Width:         64
       Memory Reads:                0
       Memory Writes:               0
   ========= Power Analysis ======================
   FU Leakage Power:                1.204730 mW 
   FU Dynamic Power:                1.740443 mW 
   FU Total Power:                  2.945173 mW 

   Registers Leakage Power:          0.013106 mW 
   Registers Dynamic Power:          0.057551 mW 
       Register Reads (Bits):        263176
       Register Writes (Bits):       264729
   Registers Total Power:            0.070657 mW

   SPM Leakage Power:               0.104100 mW
   SPM Read Dynamic Power:          34.736762 mW
   SPM Write Dynamic Power:         26.298291 mW
   SPM Total Power:                 61.139153 mW

   Cache Leakage Power:             0.000000 mW
   Cache Read Dynamic Power:        0.000000 mW
   Cache Write Dynamic Power:       0.000000 mW
   Cache Total Power:               0.000000 mW

   Accelerator Power:               3.015830 mW
   Accelerator Power (SPM):         64.154983 mW
   Accelerator Power (Cache):       3.015830 mW

   ========= Area Analysis =======================
   FU Area:                         162305.218750 um^2 (0.162305 mm^2)
   Register Area:                   1065.283691 um^2 (0.001065 mm^2)
   SPM Area:                        2177.365505 um^2 (0.002177 mm^2)
   Cache Area:                      0.000000 um^2 (0.000000 mm^2)

   Accelerator Area:                163370.500000 um^2 (0.163371 mm^2)
   Accelerator Area (SPM):          165547.865505 um^2 (0.165548 mm^2)
   Accelerator Area (Cache):        163370.500000 um^2 (0.163371 mm^2)

   ========= SPM Resizing  =======================
   SPM Optimized Leakage Power:     0.004070 mW
   SPM Opt Area:                    175.836670 um^2

28130719375: global: Timer #0 started at tick 28130719375
28130953125: global: Timer #2 started at tick 28130953125
28131201875: global: Timer #2 stopped at tick 28131201875. Duration: 248750
28131453750: global: DAG ID = 3
28131467500: global: Node ID = 142
28131480625: global: Node deadline difference = 14000
28131493125: global: Predicted memory time / byte = 0.000162378 us/byte
28131505625: global: Predicted memory time = 10.6416 us
28131518125: global: Predicted memory time / byte = 0.000162378 us/byte
28131530625: global: Predicted memory time = 10.6416 us
28131550625: global: Predicted memory time / byte = 0.000184601 us/byte
28131563125: global: Predicted memory time = 12.098 us
28131575625: global: Predicted memory time / byte = 0 us/byte
28131588125: global: Predicted memory time = 0 us
28131600625: global: Predicted memory access size = 0
28131613125: global: Predicted memory access size = 65536
28131625625: global: Predicted memory access size = 0
28131638125: global: Predicted memory access size = 0
28145078750: system.acctest.elem_matrix0_dma: SRC:0x000000008345af40, DST:0x0000000024000020, LEN:65536
28145308750: global: Timer #0 stopped at tick 28145308750. Duration: 14589375
28145325000: global: Number of accelerators running = 1
28157050750: system.acctest.elem_matrix0_dma: Transfer completed in 11.972 us
28157259375: global: Timer #0 started at tick 28157259375
28157708125: global: Timer #1 started at tick 28157708125
28158128750: global: Timer #1 stopped at tick 28158128750. Duration: 420625
28159566875: global: Timer #0 stopped at tick 28159566875. Duration: 2307500
28159583125: global: Number of accelerators running = 1
********************************************************************************
system.acctest.elem_matrix0.compute
   ========= Performance Analysis =============
   Setup Time:                      5.737102seconds
   Simulation Time:                 77.954006seconds
   System Clock:                    1.000000GHz
   Transistor Latency:              1ns
   Runtime:                         10932 cycles
   Runtime:                         10.932000 us
   Stalls:                          1 cycles
   Executed Nodes:                  10930 cycles

********************************************************************************
   ========= Performance Analysis =================
   Setup Time:                      5737101545.000000ns
   Simulation Time:                 77954005567.000000ns
   System Clock:                    1.000000GHz
   Transistor Latency:              0ns
   Runtime:                         10932 cycles
   Runtime:                         0.000001 seconds
   Stalls:                          1 cycles
       Load Only:                   0 cycles
       Store Only:                  1 cycles
       Compute Only:                0 cycles
       Compute & Store:             0 cycles
       Load & Store:                0 cycles
       Load & Compute:              0 cycles
       Load & Compute & Store:      0 cycles
   Executed Nodes:                  10930 cycles
       Load Only:                   0 cycles
       Store Only:                  4 cycles
       Compute Only:                1 cycles
       Compute & Store:             21 cycles
       Load & Store:                0 cycles
       Load & Compute:              6 cycles
       Load & Compute & Store:      10898 cycles

   ========= Runtime FU's ========= (Max | Avg) ===
   Counter FU's:                      32 | 0.046838
   Integer Add/Sub FU's:               0 | 0.000000
   Integer Mul/Div FU's:               0 | 0.000000
   Integer Shifter FU's:               0 | 0.000000
   Integer Bitwise FU's:               1 | 0.000091
   Floating Point Float Add/Sub:       0 | 0.000000
   Floating Point Double Add/Sub:      0 | 0.000000
   Floating Point Float Mul/Div:      34 | 0.044252
   Floating Point Double Mul/Div:      0 | 0.000000
   0 Cycle Compare FU's:             102 | 0.046945
   GEP Instruction FU's:              96 | 0.046835
   Type Conversion FU's:               7 | 0.006782

   ========= Static FU's ==========================
   Counter FU's:                    0
   Integer Add/Sub FU's:            0
   Integer Mul/Div FU's:            0
   Integer Shifter FU's:            0
   Integer Bitwise FU's:            0
   Floating Point Float Add/Sub:    0
   Floating Point Double Add/Sub:   0
   Floating Point Float Mul/Div:    0
   Floating Point Double Mul/Div:   0
   0 Cycle Compare FU's:            0
   GEP Instruction FU's:            0
   Type Conversion FU's:            0
   Other:                           0

   ========= Pipeline Register Usage =============
   Total Number of Registers:       5641
   Max Register Usage Per Cycle:    137
   Avg Register Usage Per Cycle:    12.130992
   Avg Register Size (Bytes):       5.980606

   ========= Memory Configuration =================
   Cache Bus Ports:                 0
   Shared Cache Size:               0kB
   Local Bus Ports:                 0
   Private SPM Size:                256kB
   Private Read Ports:              0
   Private Write Ports:             0
   Private Read Bus Width:          64
   Private Write Bus Width:         64
       Memory Reads:                0
       Memory Writes:               0
   ========= Power Analysis ======================
   FU Leakage Power:                0.045377 mW 
   FU Dynamic Power:                0.142576 mW 
   FU Total Power:                  0.187953 mW 

   Registers Leakage Power:          0.005281 mW 
   Registers Dynamic Power:          0.015326 mW 
       Register Reads (Bits):        132616
       Register Writes (Bits):       133658
   Registers Total Power:            0.020607 mW

   SPM Leakage Power:               0.104100 mW
   SPM Read Dynamic Power:          34.786825 mW
   SPM Write Dynamic Power:         26.349887 mW
   SPM Total Power:                 61.240812 mW

   Cache Leakage Power:             0.000000 mW
   Cache Read Dynamic Power:        0.000000 mW
   Cache Write Dynamic Power:       0.000000 mW
   Cache Total Power:               0.000000 mW

   Accelerator Power:               0.208559 mW
   Accelerator Power (SPM):         61.449371 mW
   Accelerator Power (Cache):       0.208559 mW

   ========= Area Analysis =======================
   FU Area:                         5472.068359 um^2 (0.005472 mm^2)
   Register Area:                   429.271088 um^2 (0.000429 mm^2)
   SPM Area:                        2177.365505 um^2 (0.002177 mm^2)
   Cache Area:                      0.000000 um^2 (0.000000 mm^2)

   Accelerator Area:                5901.339355 um^2 (0.005901 mm^2)
   Accelerator Area (SPM):          8078.704860 um^2 (0.008079 mm^2)
   Accelerator Area (Cache):        5901.339355 um^2 (0.005901 mm^2)

   ========= SPM Resizing  =======================
   SPM Optimized Leakage Power:     0.004248 mW
   SPM Opt Area:                    178.524902 um^2

28170347500: global: Timer #0 started at tick 28170347500
28183643750: system.acctest.elem_matrix0_dma: SRC:0x0000000024020020, DST:0x000000008347af40, LEN:65536
28184001250: global: Timer #0 stopped at tick 28184001250. Duration: 13653750
28184017500: global: Number of accelerators running = 1
28189935750: system.acctest.elem_matrix0_dma: Transfer completed in 6.292 us
28190012500: global: Timer #0 started at tick 28190012500
28190372500: global: Timer #1 started at tick 28190372500
28190546875: global: Timer #1 stopped at tick 28190546875. Duration: 174375
28190758125: global: DAG ID = 3
28190771875: global: Node ID = 143
28190795625: global: DAG execution time = 21000
28190808750: global: DAG deadline difference = 14000
28190825625: global: Node deadline difference = 14000
28190838125: global: Predicted memory time / byte = 0.00015562 us/byte
28190850625: global: Predicted memory time = 20.3974 us
28190863125: global: Predicted memory time / byte = 0.00015562 us/byte
28190875625: global: Predicted memory time = 10.1987 us
28190888125: global: Predicted memory time / byte = 0.000185242 us/byte
28190900625: global: Predicted memory time = 12.14 us
28190913125: global: Predicted memory time / byte = 9.65118e-05 us/byte
28190925625: global: Predicted memory time = 6.325 us
28190938125: global: Predicted memory access size = 0
28190950625: global: Predicted memory access size = 65536
28190963125: global: Predicted memory access size = 0
28190975625: global: Predicted memory access size = 65536
28191079375: global: Timer #0 stopped at tick 28191079375. Duration: 1066875
28191095625: global: Number of accelerators running = 0
28191186250: global: Number of forwards = 30
28191453125: global: Number of colocations = 24
28191472500: global: Number of DAG deadlines met = 2
28191491875: global: Number of node deadlines met = 88
28191525625: global: Total predicted compute time = 12403 us
Exiting @ tick 28191858125 because m5_exit instruction encountered
