gem5 Simulator System.  http://gem5.org
gem5 is copyrighted software; use the --copyright option for details.

gem5 compiled May 11 2023 13:12:28
gem5 started May 28 2023 01:00:29
gem5 executing on node4x10a.cs.rochester.edu, pid 46765
command line: /u/sgupta45/gem5-SALAM/build/ARM/gem5_bus.opt --debug-flags=HWACC,CommInterface,LLVMInterface,StreamDma,NoncoherentDma,TickTimer,SchedulerStats --outdir=BM_ARM_OUT/comb_1/canny_0_deblur_0_gru_0_harris_0_lstm_1_ELF configs/SALAM/scheduler.py --mem-size=4GB --mem-type=LPDDR5_6400_1x16_BG_BL32 --kernel=/u/sgupta45/gem5-SALAM/benchmarks/scheduler/sw/bin_comb_1/canny_0_deblur_0_gru_0_harris_0_lstm_1_ELF.elf --vans-config-path=/u/sgupta45/VANS/config --disk-image=/u/sgupta45/gem5-SALAM/baremetal/common/fake.iso --machine-type=VExpress_GEM5_V1 --dtb-file=none --bare-metal --cpu-type=ex5_LITTLE --cpu-clock=1.6GHz --accpath=/u/sgupta45/gem5-SALAM/benchmarks --caches --cacheline_size=64 --l1d_size=32kB --l1d_assoc=4 --l1i_size=32kB --l1i_assoc=2

Global frequency set at 1000000000000 ticks per second
Cycle Counts Loaded!
Cycle Counts Loaded!
Cycle Counts Loaded!
Cycle Counts Loaded!
Cycle Counts Loaded!
Cycle Counts Loaded!
Cycle Counts Loaded!
Cycle Counts Loaded!
Cycle Counts Loaded!
Cycle Counts Loaded!
Cycle Counts Loaded!
**** REAL SIMULATION ****
3552160625: global: Timer #2 started at tick 3552160625
3552835625: global: Timer #2 stopped at tick 3552835625. Duration: 675000
3589430875: system.acctest.elem_matrix0_dma: SRC:0x00000000821d8940, DST:0x0000000024000020, LEN:65536
3589947500: global: Number of accelerators running = 1
3601469875: system.acctest.elem_matrix0_dma: Transfer completed in 12.039 us
3601933750: global: Timer #0 started at tick 3601933750
3602331250: global: Timer #1 started at tick 3602331250
3603024375: global: Timer #1 stopped at tick 3603024375. Duration: 693125
3618088750: system.acctest.elem_matrix0_dma: SRC:0x0000000082098780, DST:0x0000000024010020, LEN:65536
3618665000: global: Timer #0 stopped at tick 3618665000. Duration: 16731250
3618724375: global: Number of accelerators running = 1
3630223750: system.acctest.elem_matrix0_dma: Transfer completed in 12.135 us
3630314375: global: Timer #0 started at tick 3630314375
3630458125: global: Timer #1 started at tick 3630458125
3630645625: global: Timer #1 stopped at tick 3630645625. Duration: 187500
3632707500: global: Timer #0 stopped at tick 3632707500. Duration: 2393125
3632721875: global: Number of accelerators running = 1
********************************************************************************
system.acctest.elem_matrix0.compute
   ========= Performance Analysis =============
   Setup Time:                      4.2201seconds
   Simulation Time:                 149.379seconds
   System Clock:                    1GHz
   Transistor Latency:              1ns
   Runtime:                         10932 cycles
   Runtime:                         10.932 us
   Stalls:                          0 cycles
   Executed Nodes:                  10931 cycles

********************************************************************************
   ========= Performance Analysis =================
   Setup Time:                      4.2201e+09ns
   Simulation Time:                 1.49379e+11ns
   System Clock:                    1GHz
   Transistor Latency:              0ns
   Runtime:                         10932 cycles
   Runtime:                         1.0932e-06 seconds
   Stalls:                          0 cycles
       Load Only:                   0 cycles
       Store Only:                  0 cycles
       Compute Only:                0 cycles
       Compute & Store:             0 cycles
       Load & Store:                0 cycles
       Load & Compute:              0 cycles
       Load & Compute & Store:      0 cycles
   Executed Nodes:                  10931 cycles
       Load Only:                   0 cycles
       Store Only:                  5 cycles
       Compute Only:                1 cycles
       Compute & Store:             21 cycles
       Load & Store:                0 cycles
       Load & Compute:              7 cycles
       Load & Compute & Store:      10897 cycles

   ========= Runtime FU's ========= (Max | Avg) ===
   Counter FU's:                      32 | 0.046838
   Integer Add/Sub FU's:               0 | 0.000000
   Integer Mul/Div FU's:               0 | 0.000000
   Integer Shifter FU's:               0 | 0.000000
   Integer Bitwise FU's:               1 | 0.000091
   Floating Point Float Add/Sub:      34 | 0.044252
   Floating Point Double Add/Sub:      0 | 0.000000
   Floating Point Float Mul/Div:       0 | 0.000000
   Floating Point Double Mul/Div:      0 | 0.000000
   0 Cycle Compare FU's:             102 | 0.046974
   GEP Instruction FU's:              96 | 0.046835
   Type Conversion FU's:               7 | 0.006782

   ========= Static FU's ==========================
   Counter FU's:                    0
   Integer Add/Sub FU's:            0
   Integer Mul/Div FU's:            0
   Integer Shifter FU's:            0
   Integer Bitwise FU's:            0
   Floating Point Float Add/Sub:    0
   Floating Point Double Add/Sub:   0
   Floating Point Float Mul/Div:    0
   Floating Point Double Mul/Div:   0
   0 Cycle Compare FU's:            0
   GEP Instruction FU's:            0
   Type Conversion FU's:            0
   Other:                           0

   ========= Pipeline Register Usage =============
   Total Number of Registers:       5641
   Max Register Usage Per Cycle:    138
   Avg Register Usage Per Cycle:    12.130992
   Avg Register Size (Bytes):       5.980606

   ========= Memory Configuration =================
   Cache Bus Ports:                 0
   Shared Cache Size:               0kB
   Local Bus Ports:                 0
   Private SPM Size:                256kB
   Private Read Ports:              0
   Private Write Ports:             0
   Private Read Bus Width:          64
   Private Write Bus Width:         64
       Memory Reads:                0
       Memory Writes:               0
   ========= Power Analysis ======================
   FU Leakage Power:                0.519269 mW 
   FU Dynamic Power:                0.154621 mW 
   FU Total Power:                  0.673890 mW 

   Registers Leakage Power:          0.005281 mW 
   Registers Dynamic Power:          0.015326 mW 
       Register Reads (Bits):        132616
       Register Writes (Bits):       133658
   Registers Total Power:            0.020607 mW

   SPM Leakage Power:               0.104100 mW
   SPM Read Dynamic Power:          1.997266 mW
   SPM Write Dynamic Power:         0.953321 mW
   SPM Total Power:                 3.054688 mW

   Cache Leakage Power:             0.000000 mW
   Cache Read Dynamic Power:        0.000000 mW
   Cache Write Dynamic Power:       0.000000 mW
   Cache Total Power:               0.000000 mW

   Accelerator Power:               0.694497 mW
   Accelerator Power (SPM):         3.749184 mW
   Accelerator Power (Cache):       0.694497 mW

   ========= Area Analysis =======================
   FU Area:                         70212.562500 um^2 (0.070213 mm^2)
   Register Area:                   429.271088 um^2 (0.000429 mm^2)
   SPM Area:                        2177.365505 um^2 (0.002177 mm^2)
   Cache Area:                      0.000000 um^2 (0.000000 mm^2)

   Accelerator Area:                70641.835938 um^2 (0.070642 mm^2)
   Accelerator Area (SPM):          72819.201442 um^2 (0.072819 mm^2)
   Accelerator Area (Cache):        70641.835938 um^2 (0.070642 mm^2)

   ========= SPM Resizing  =======================
   SPM Optimized Leakage Power:     0.004248 mW
   SPM Opt Area:                    178.524902 um^2

3643427500: global: Timer #0 started at tick 3643427500
3643888750: global: Timer #3 started at tick 3643888750
3644324375: global: Timer #3 stopped at tick 3644324375. Duration: 435625
3644611875: global: Timer #3 started at tick 3644611875
3644973750: global: Timer #3 stopped at tick 3644973750. Duration: 361875
3645065000: global: Timer #3 started at tick 3645065000
3645250000: global: Timer #3 stopped at tick 3645250000. Duration: 185000
3645505000: global: Timer #3 started at tick 3645505000
3645748750: global: Timer #3 stopped at tick 3645748750. Duration: 243750
3646040625: global: Timer #2 started at tick 3646040625
3646749375: global: Timer #2 stopped at tick 3646749375. Duration: 708750
3646819375: global: Timer #2 started at tick 3646819375
3647068750: global: Timer #2 stopped at tick 3647068750. Duration: 249375
3647096875: global: Timer #2 started at tick 3647096875
3647166875: global: Timer #2 stopped at tick 3647166875. Duration: 70000
3647186875: global: Timer #2 started at tick 3647186875
3647256875: global: Timer #2 stopped at tick 3647256875. Duration: 70000
3661218750: system.acctest.elem_matrix0_dma: SRC:0x0000000024020020, DST:0x00000000820a8780, LEN:65536
3661798750: global: Timer #0 stopped at tick 3661798750. Duration: 18371250
3661813125: global: Number of accelerators running = 1
3667511750: system.acctest.elem_matrix0_dma: Transfer completed in 6.293 us
3667585625: global: Timer #0 started at tick 3667585625
3667860625: global: Timer #1 started at tick 3667860625
3668173750: global: Timer #1 stopped at tick 3668173750. Duration: 313125
3668581875: global: DAG ID = 0
3668644375: global: Node ID = 0
3668715000: global: Node deadline difference = -3593
3668735000: global: Predicted memory time / byte = 0 us/byte
3668753125: global: Predicted memory time = 0 us
3668771250: global: Predicted memory time / byte = 0 us/byte
3668789375: global: Predicted memory time = 0 us
3668807500: global: Predicted memory time / byte = 0.000189629 us/byte
3668825625: global: Predicted memory time = 24 us
3668843750: global: Predicted memory time / byte = 9.78241e-05 us/byte
3668861875: global: Predicted memory time = 6 us
3683209500: system.acctest.elem_matrix0_dma: SRC:0x0000000082018780, DST:0x0000000024000020, LEN:65536
3683450000: global: Timer #0 stopped at tick 3683450000. Duration: 15864375
3683464375: global: Number of accelerators running = 1
3695199500: system.acctest.elem_matrix0_dma: Transfer completed in 11.99 us
3695317500: global: Timer #0 started at tick 3695317500
3695401875: global: Timer #1 started at tick 3695401875
3695679375: global: Timer #1 stopped at tick 3695679375. Duration: 277500
3697491250: global: Timer #0 stopped at tick 3697491250. Duration: 2173750
3697505625: global: Number of accelerators running = 1
********************************************************************************
system.acctest.elem_matrix0.compute
   ========= Performance Analysis =============
   Setup Time:                      6.891222seconds
   Simulation Time:                 172.850327seconds
   System Clock:                    1.000000GHz
   Transistor Latency:              1ns
   Runtime:                         10932 cycles
   Runtime:                         10.932000 us
   Stalls:                          1 cycles
   Executed Nodes:                  10930 cycles

********************************************************************************
   ========= Performance Analysis =================
   Setup Time:                      6891222282.000000ns
   Simulation Time:                 172850327046.000000ns
   System Clock:                    1.000000GHz
   Transistor Latency:              0ns
   Runtime:                         10932 cycles
   Runtime:                         0.000001 seconds
   Stalls:                          1 cycles
       Load Only:                   0 cycles
       Store Only:                  1 cycles
       Compute Only:                0 cycles
       Compute & Store:             0 cycles
       Load & Store:                0 cycles
       Load & Compute:              0 cycles
       Load & Compute & Store:      0 cycles
   Executed Nodes:                  10930 cycles
       Load Only:                   0 cycles
       Store Only:                  4 cycles
       Compute Only:                1 cycles
       Compute & Store:             21 cycles
       Load & Store:                0 cycles
       Load & Compute:              6 cycles
       Load & Compute & Store:      10898 cycles

   ========= Runtime FU's ========= (Max | Avg) ===
   Counter FU's:                      32 | 0.046838
   Integer Add/Sub FU's:               0 | 0.000000
   Integer Mul/Div FU's:               0 | 0.000000
   Integer Shifter FU's:               0 | 0.000000
   Integer Bitwise FU's:               1 | 0.000091
   Floating Point Float Add/Sub:       0 | 0.000000
   Floating Point Double Add/Sub:      0 | 0.000000
   Floating Point Float Mul/Div:      34 | 0.044252
   Floating Point Double Mul/Div:      0 | 0.000000
   0 Cycle Compare FU's:             102 | 0.046945
   GEP Instruction FU's:              96 | 0.046835
   Type Conversion FU's:               7 | 0.006782

   ========= Static FU's ==========================
   Counter FU's:                    0
   Integer Add/Sub FU's:            0
   Integer Mul/Div FU's:            0
   Integer Shifter FU's:            0
   Integer Bitwise FU's:            0
   Floating Point Float Add/Sub:    0
   Floating Point Double Add/Sub:   0
   Floating Point Float Mul/Div:    0
   Floating Point Double Mul/Div:   0
   0 Cycle Compare FU's:            0
   GEP Instruction FU's:            0
   Type Conversion FU's:            0
   Other:                           0

   ========= Pipeline Register Usage =============
   Total Number of Registers:       5641
   Max Register Usage Per Cycle:    137
   Avg Register Usage Per Cycle:    12.130992
   Avg Register Size (Bytes):       5.980606

   ========= Memory Configuration =================
   Cache Bus Ports:                 0
   Shared Cache Size:               0kB
   Local Bus Ports:                 0
   Private SPM Size:                256kB
   Private Read Ports:              0
   Private Write Ports:             0
   Private Read Bus Width:          64
   Private Write Bus Width:         64
       Memory Reads:                0
       Memory Writes:               0
   ========= Power Analysis ======================
   FU Leakage Power:                0.045377 mW 
   FU Dynamic Power:                0.142576 mW 
   FU Total Power:                  0.187953 mW 

   Registers Leakage Power:          0.005281 mW 
   Registers Dynamic Power:          0.015326 mW 
       Register Reads (Bits):        132616
       Register Writes (Bits):       133658
   Registers Total Power:            0.020607 mW

   SPM Leakage Power:               0.104100 mW
   SPM Read Dynamic Power:          2.785289 mW
   SPM Write Dynamic Power:         2.044305 mW
   SPM Total Power:                 4.933694 mW

   Cache Leakage Power:             0.000000 mW
   Cache Read Dynamic Power:        0.000000 mW
   Cache Write Dynamic Power:       0.000000 mW
   Cache Total Power:               0.000000 mW

   Accelerator Power:               0.208559 mW
   Accelerator Power (SPM):         5.142254 mW
   Accelerator Power (Cache):       0.208559 mW

   ========= Area Analysis =======================
   FU Area:                         5472.068359 um^2 (0.005472 mm^2)
   Register Area:                   429.271088 um^2 (0.000429 mm^2)
   SPM Area:                        2177.365505 um^2 (0.002177 mm^2)
   Cache Area:                      0.000000 um^2 (0.000000 mm^2)

   Accelerator Area:                5901.339355 um^2 (0.005901 mm^2)
   Accelerator Area (SPM):          8078.704860 um^2 (0.008079 mm^2)
   Accelerator Area (Cache):        5901.339355 um^2 (0.005901 mm^2)

   ========= SPM Resizing  =======================
   SPM Optimized Leakage Power:     0.004248 mW
   SPM Opt Area:                    178.524902 um^2

3708259375: global: Timer #0 started at tick 3708259375
3708570000: global: Timer #3 started at tick 3708570000
3708742500: global: Timer #3 stopped at tick 3708742500. Duration: 172500
3708797500: global: Timer #2 started at tick 3708797500
3709015000: global: Timer #2 stopped at tick 3709015000. Duration: 217500
3709384375: global: DAG ID = 0
3709403750: global: Node ID = 1
3709421875: global: Node deadline difference = -3609
3709483125: global: Predicted memory time / byte = 0.000186569 us/byte
3709501250: global: Predicted memory time = 36.681 us
3709519375: global: Predicted memory time / byte = 9.78241e-05 us/byte
3709537500: global: Predicted memory time = 12.822 us
3709555625: global: Predicted memory time / byte = 0.000183472 us/byte
3709573750: global: Predicted memory time = 12 us
3709591875: global: Predicted memory time / byte = 0 us/byte
3709610000: global: Predicted memory time = 0 us
3723234500: system.acctest.elem_matrix0_dma: SRC:0x0000000082028780, DST:0x0000000024000020, LEN:65536
3723472500: global: Timer #0 stopped at tick 3723472500. Duration: 15213125
3723486875: global: Number of accelerators running = 1
3735196500: system.acctest.elem_matrix0_dma: Transfer completed in 11.962 us
3735270625: global: Timer #0 started at tick 3735270625
3735358125: global: Timer #1 started at tick 3735358125
3735625000: global: Timer #1 stopped at tick 3735625000. Duration: 266875
3737318750: global: Timer #0 stopped at tick 3737318750. Duration: 2048125
3737333125: global: Number of accelerators running = 1
********************************************************************************
system.acctest.elem_matrix0.compute
   ========= Performance Analysis =============
   Setup Time:                      7.410288seconds
   Simulation Time:                 166.501916seconds
   System Clock:                    1.000000GHz
   Transistor Latency:              1ns
   Runtime:                         10932 cycles
   Runtime:                         10.932000 us
   Stalls:                          0 cycles
   Executed Nodes:                  10931 cycles

********************************************************************************
   ========= Performance Analysis =================
   Setup Time:                      7410288284.000000ns
   Simulation Time:                 166501915651.000000ns
   System Clock:                    1.000000GHz
   Transistor Latency:              0ns
   Runtime:                         10932 cycles
   Runtime:                         0.000001 seconds
   Stalls:                          0 cycles
       Load Only:                   0 cycles
       Store Only:                  0 cycles
       Compute Only:                0 cycles
       Compute & Store:             0 cycles
       Load & Store:                0 cycles
       Load & Compute:              0 cycles
       Load & Compute & Store:      0 cycles
   Executed Nodes:                  10931 cycles
       Load Only:                   0 cycles
       Store Only:                  5 cycles
       Compute Only:                1 cycles
       Compute & Store:             21 cycles
       Load & Store:                0 cycles
       Load & Compute:              7 cycles
       Load & Compute & Store:      10897 cycles

   ========= Runtime FU's ========= (Max | Avg) ===
   Counter FU's:                      32 | 0.046838
   Integer Add/Sub FU's:               0 | 0.000000
   Integer Mul/Div FU's:               0 | 0.000000
   Integer Shifter FU's:               0 | 0.000000
   Integer Bitwise FU's:               1 | 0.000091
   Floating Point Float Add/Sub:      34 | 0.044252
   Floating Point Double Add/Sub:      0 | 0.000000
   Floating Point Float Mul/Div:       0 | 0.000000
   Floating Point Double Mul/Div:      0 | 0.000000
   0 Cycle Compare FU's:             102 | 0.046974
   GEP Instruction FU's:              96 | 0.046835
   Type Conversion FU's:               7 | 0.006782

   ========= Static FU's ==========================
   Counter FU's:                    0
   Integer Add/Sub FU's:            0
   Integer Mul/Div FU's:            0
   Integer Shifter FU's:            0
   Integer Bitwise FU's:            0
   Floating Point Float Add/Sub:    0
   Floating Point Double Add/Sub:   0
   Floating Point Float Mul/Div:    0
   Floating Point Double Mul/Div:   0
   0 Cycle Compare FU's:            0
   GEP Instruction FU's:            0
   Type Conversion FU's:            0
   Other:                           0

   ========= Pipeline Register Usage =============
   Total Number of Registers:       5641
   Max Register Usage Per Cycle:    138
   Avg Register Usage Per Cycle:    12.130992
   Avg Register Size (Bytes):       5.980606

   ========= Memory Configuration =================
   Cache Bus Ports:                 0
   Shared Cache Size:               0kB
   Local Bus Ports:                 0
   Private SPM Size:                256kB
   Private Read Ports:              0
   Private Write Ports:             0
   Private Read Bus Width:          64
   Private Write Bus Width:         64
       Memory Reads:                0
       Memory Writes:               0
   ========= Power Analysis ======================
   FU Leakage Power:                0.519269 mW 
   FU Dynamic Power:                0.154621 mW 
   FU Total Power:                  0.673890 mW 

   Registers Leakage Power:          0.005281 mW 
   Registers Dynamic Power:          0.015326 mW 
       Register Reads (Bits):        132616
       Register Writes (Bits):       133658
   Registers Total Power:            0.020607 mW

   SPM Leakage Power:               0.104100 mW
   SPM Read Dynamic Power:          3.776796 mW
   SPM Write Dynamic Power:         2.457440 mW
   SPM Total Power:                 6.338336 mW

   Cache Leakage Power:             0.000000 mW
   Cache Read Dynamic Power:        0.000000 mW
   Cache Write Dynamic Power:       0.000000 mW
   Cache Total Power:               0.000000 mW

   Accelerator Power:               0.694497 mW
   Accelerator Power (SPM):         7.032833 mW
   Accelerator Power (Cache):       0.694497 mW

   ========= Area Analysis =======================
   FU Area:                         70212.562500 um^2 (0.070213 mm^2)
   Register Area:                   429.271088 um^2 (0.000429 mm^2)
   SPM Area:                        2177.365505 um^2 (0.002177 mm^2)
   Cache Area:                      0.000000 um^2 (0.000000 mm^2)

   Accelerator Area:                70641.835938 um^2 (0.070642 mm^2)
   Accelerator Area (SPM):          72819.201442 um^2 (0.072819 mm^2)
   Accelerator Area (Cache):        70641.835938 um^2 (0.070642 mm^2)

   ========= SPM Resizing  =======================
   SPM Optimized Leakage Power:     0.004248 mW
   SPM Opt Area:                    178.524902 um^2

3748088125: global: Timer #0 started at tick 3748088125
3748393125: global: Timer #3 started at tick 3748393125
3748621875: global: Timer #3 stopped at tick 3748621875. Duration: 228750
3748676875: global: Timer #2 started at tick 3748676875
3748843125: global: Timer #2 stopped at tick 3748843125. Duration: 166250
3749081250: global: DAG ID = 0
3749095000: global: Node ID = 2
3749108125: global: Node deadline difference = -3626
3749120625: global: Predicted memory time / byte = 0.000183472 us/byte
3749133125: global: Predicted memory time = 36.072 us
3749145625: global: Predicted memory time / byte = 0.000183472 us/byte
3749158125: global: Predicted memory time = 24.048 us
3749170625: global: Predicted memory time / byte = 0.000183075 us/byte
3749183125: global: Predicted memory time = 11 us
3749195625: global: Predicted memory time / byte = 0 us/byte
3749208125: global: Predicted memory time = 0 us
3750782500: global: Timer #0 stopped at tick 3750782500. Duration: 2694375
3750796875: global: Number of accelerators running = 1
********************************************************************************
system.acctest.elem_matrix0.compute
   ========= Performance Analysis =============
   Setup Time:                      7.816264seconds
   Simulation Time:                 125.667388seconds
   System Clock:                    1.000000GHz
   Transistor Latency:              1ns
   Runtime:                         8316 cycles
   Runtime:                         8.316000 us
   Stalls:                          82 cycles
   Executed Nodes:                  8233 cycles

********************************************************************************
   ========= Performance Analysis =================
   Setup Time:                      7816263832.000000ns
   Simulation Time:                 125667388090.000000ns
   System Clock:                    1.000000GHz
   Transistor Latency:              0ns
   Runtime:                         8316 cycles
   Runtime:                         0.000001 seconds
   Stalls:                          82 cycles
       Load Only:                   0 cycles
       Store Only:                  77 cycles
       Compute Only:                0 cycles
       Compute & Store:             5 cycles
       Load & Store:                0 cycles
       Load & Compute:              0 cycles
       Load & Compute & Store:      0 cycles
   Executed Nodes:                  8233 cycles
       Load Only:                   0 cycles
       Store Only:                  11 cycles
       Compute Only:                1827 cycles
       Compute & Store:             3453 cycles
       Load & Store:                0 cycles
       Load & Compute:              774 cycles
       Load & Compute & Store:      2168 cycles

   ========= Runtime FU's ========= (Max | Avg) ===
   Counter FU's:                      32 | 0.061572
   Integer Add/Sub FU's:               0 | 0.000000
   Integer Mul/Div FU's:               0 | 0.000000
   Integer Shifter FU's:               0 | 0.000000
   Integer Bitwise FU's:               1 | 0.000120
   Floating Point Float Add/Sub:      80 | 0.302014
   Floating Point Double Add/Sub:      0 | 0.000000
   Floating Point Float Mul/Div:      35 | 0.056511
   Floating Point Double Mul/Div:      0 | 0.000000
   0 Cycle Compare FU's:              15 | 0.024828
   GEP Instruction FU's:              64 | 0.061568
   Type Conversion FU's:              66 | 0.120964

   ========= Static FU's ==========================
   Counter FU's:                    0
   Integer Add/Sub FU's:            0
   Integer Mul/Div FU's:            0
   Integer Shifter FU's:            0
   Integer Bitwise FU's:            0
   Floating Point Float Add/Sub:    0
   Floating Point Double Add/Sub:   0
   Floating Point Float Mul/Div:    0
   Floating Point Double Mul/Div:   0
   0 Cycle Compare FU's:            0
   GEP Instruction FU's:            0
   Type Conversion FU's:            0
   Other:                           0

   ========= Pipeline Register Usage =============
   Total Number of Registers:       5641
   Max Register Usage Per Cycle:    126
   Avg Register Usage Per Cycle:    27.706590
   Avg Register Size (Bytes):       5.993295

   ========= Memory Configuration =================
   Cache Bus Ports:                 0
   Shared Cache Size:               0kB
   Local Bus Ports:                 0
   Private SPM Size:                256kB
   Private Read Ports:              0
   Private Write Ports:             0
   Private Read Bus Width:          64
   Private Write Bus Width:         64
       Memory Reads:                0
       Memory Writes:               0
   ========= Power Analysis ======================
   FU Leakage Power:                1.265749 mW 
   FU Dynamic Power:                1.166708 mW 
   FU Total Power:                  2.432457 mW 

   Registers Leakage Power:          0.011908 mW 
   Registers Dynamic Power:          0.045645 mW 
       Register Reads (Bits):        230408
       Register Writes (Bits):       231961
   Registers Total Power:            0.057553 mW

   SPM Leakage Power:               0.104100 mW
   SPM Read Dynamic Power:          4.599549 mW
   SPM Write Dynamic Power:         2.880682 mW
   SPM Total Power:                 7.584331 mW

   Cache Leakage Power:             0.000000 mW
   Cache Read Dynamic Power:        0.000000 mW
   Cache Write Dynamic Power:       0.000000 mW
   Cache Total Power:               0.000000 mW

   Accelerator Power:               2.490010 mW
   Accelerator Power (SPM):         10.074342 mW
   Accelerator Power (Cache):       2.490010 mW

   ========= Area Analysis =======================
   FU Area:                         170559.593750 um^2 (0.170560 mm^2)
   Register Area:                   967.909180 um^2 (0.000968 mm^2)
   SPM Area:                        2177.365505 um^2 (0.002177 mm^2)
   Cache Area:                      0.000000 um^2 (0.000000 mm^2)

   Accelerator Area:                171527.500000 um^2 (0.171527 mm^2)
   Accelerator Area (SPM):          173704.865505 um^2 (0.173705 mm^2)
   Accelerator Area (Cache):        171527.500000 um^2 (0.171527 mm^2)

   ========= SPM Resizing  =======================
   SPM Optimized Leakage Power:     0.003887 mW
   SPM Opt Area:                    172.850411 um^2

3758952500: global: Timer #0 started at tick 3758952500
3759258125: global: Timer #3 started at tick 3759258125
3759412500: global: Timer #3 stopped at tick 3759412500. Duration: 154375
3759467500: global: Timer #2 started at tick 3759467500
3759631250: global: Timer #2 stopped at tick 3759631250. Duration: 163750
3759985000: global: DAG ID = 0
3759998750: global: Node ID = 3
3760011875: global: Node deadline difference = -3656
3760024375: global: Predicted memory time / byte = 0.000183075 us/byte
3760036875: global: Predicted memory time = 23.996 us
3760049375: global: Predicted memory time / byte = 0.000183075 us/byte
3760061875: global: Predicted memory time = 23.996 us
3760074375: global: Predicted memory time / byte = 0 us/byte
3760086875: global: Predicted memory time = 0 us
3760099375: global: Predicted memory time / byte = 0 us/byte
3760111875: global: Predicted memory time = 0 us
3773693750: system.acctest.elem_matrix0_dma: SRC:0x00000000821c8940, DST:0x0000000024010020, LEN:65536
3773899375: global: Timer #0 stopped at tick 3773899375. Duration: 14946875
3773912500: global: Number of accelerators running = 1
3785683750: system.acctest.elem_matrix0_dma: Transfer completed in 11.99 us
3785757500: global: Timer #0 started at tick 3785757500
3785803125: global: Timer #1 started at tick 3785803125
3786086250: global: Timer #1 stopped at tick 3786086250. Duration: 283125
3787922500: global: Timer #0 stopped at tick 3787922500. Duration: 2165000
3787936875: global: Number of accelerators running = 1
********************************************************************************
system.acctest.elem_matrix0.compute
   ========= Performance Analysis =============
   Setup Time:                      7.788049seconds
   Simulation Time:                 182.552568seconds
   System Clock:                    1.000000GHz
   Transistor Latency:              1ns
   Runtime:                         10932 cycles
   Runtime:                         10.932000 us
   Stalls:                          1 cycles
   Executed Nodes:                  10930 cycles

********************************************************************************
   ========= Performance Analysis =================
   Setup Time:                      7788048935.000000ns
   Simulation Time:                 182552567855.000000ns
   System Clock:                    1.000000GHz
   Transistor Latency:              0ns
   Runtime:                         10932 cycles
   Runtime:                         0.000001 seconds
   Stalls:                          1 cycles
       Load Only:                   0 cycles
       Store Only:                  1 cycles
       Compute Only:                0 cycles
       Compute & Store:             0 cycles
       Load & Store:                0 cycles
       Load & Compute:              0 cycles
       Load & Compute & Store:      0 cycles
   Executed Nodes:                  10930 cycles
       Load Only:                   0 cycles
       Store Only:                  4 cycles
       Compute Only:                1 cycles
       Compute & Store:             21 cycles
       Load & Store:                0 cycles
       Load & Compute:              6 cycles
       Load & Compute & Store:      10898 cycles

   ========= Runtime FU's ========= (Max | Avg) ===
   Counter FU's:                      32 | 0.046838
   Integer Add/Sub FU's:               0 | 0.000000
   Integer Mul/Div FU's:               0 | 0.000000
   Integer Shifter FU's:               0 | 0.000000
   Integer Bitwise FU's:               1 | 0.000091
   Floating Point Float Add/Sub:       0 | 0.000000
   Floating Point Double Add/Sub:      0 | 0.000000
   Floating Point Float Mul/Div:      34 | 0.044252
   Floating Point Double Mul/Div:      0 | 0.000000
   0 Cycle Compare FU's:             102 | 0.046945
   GEP Instruction FU's:              96 | 0.046835
   Type Conversion FU's:               7 | 0.006782

   ========= Static FU's ==========================
   Counter FU's:                    0
   Integer Add/Sub FU's:            0
   Integer Mul/Div FU's:            0
   Integer Shifter FU's:            0
   Integer Bitwise FU's:            0
   Floating Point Float Add/Sub:    0
   Floating Point Double Add/Sub:   0
   Floating Point Float Mul/Div:    0
   Floating Point Double Mul/Div:   0
   0 Cycle Compare FU's:            0
   GEP Instruction FU's:            0
   Type Conversion FU's:            0
   Other:                           0

   ========= Pipeline Register Usage =============
   Total Number of Registers:       5641
   Max Register Usage Per Cycle:    137
   Avg Register Usage Per Cycle:    12.130992
   Avg Register Size (Bytes):       5.980606

   ========= Memory Configuration =================
   Cache Bus Ports:                 0
   Shared Cache Size:               0kB
   Local Bus Ports:                 0
   Private SPM Size:                256kB
   Private Read Ports:              0
   Private Write Ports:             0
   Private Read Bus Width:          64
   Private Write Bus Width:         64
       Memory Reads:                0
       Memory Writes:               0
   ========= Power Analysis ======================
   FU Leakage Power:                0.045377 mW 
   FU Dynamic Power:                0.142576 mW 
   FU Total Power:                  0.187953 mW 

   Registers Leakage Power:          0.005281 mW 
   Registers Dynamic Power:          0.015326 mW 
       Register Reads (Bits):        132616
       Register Writes (Bits):       133658
   Registers Total Power:            0.020607 mW

   SPM Leakage Power:               0.104100 mW
   SPM Read Dynamic Power:          4.784107 mW
   SPM Write Dynamic Power:         3.448926 mW
   SPM Total Power:                 8.337133 mW

   Cache Leakage Power:             0.000000 mW
   Cache Read Dynamic Power:        0.000000 mW
   Cache Write Dynamic Power:       0.000000 mW
   Cache Total Power:               0.000000 mW

   Accelerator Power:               0.208559 mW
   Accelerator Power (SPM):         8.545693 mW
   Accelerator Power (Cache):       0.208559 mW

   ========= Area Analysis =======================
   FU Area:                         5472.068359 um^2 (0.005472 mm^2)
   Register Area:                   429.271088 um^2 (0.000429 mm^2)
   SPM Area:                        2177.365505 um^2 (0.002177 mm^2)
   Cache Area:                      0.000000 um^2 (0.000000 mm^2)

   Accelerator Area:                5901.339355 um^2 (0.005901 mm^2)
   Accelerator Area (SPM):          8078.704860 um^2 (0.008079 mm^2)
   Accelerator Area (Cache):        5901.339355 um^2 (0.005901 mm^2)

   ========= SPM Resizing  =======================
   SPM Optimized Leakage Power:     0.004248 mW
   SPM Opt Area:                    178.524902 um^2

3798550625: global: Timer #0 started at tick 3798550625
3812095875: system.acctest.elem_matrix0_dma: SRC:0x0000000024020020, DST:0x00000000820e8780, LEN:65536
3812461875: global: Timer #0 stopped at tick 3812461875. Duration: 13911250
3812476250: global: Number of accelerators running = 1
3818383875: system.acctest.elem_matrix0_dma: Transfer completed in 6.288 us
3818457500: global: Timer #0 started at tick 3818457500
3818511250: global: Timer #1 started at tick 3818511250
3818661250: global: Timer #1 stopped at tick 3818661250. Duration: 150000
3818987500: global: DAG ID = 0
3819001250: global: Node ID = 4
3819020625: global: Node deadline difference = -3654
3819033125: global: Predicted memory time / byte = 0.000183075 us/byte
3819045625: global: Predicted memory time = 35.994 us
3819058125: global: Predicted memory time / byte = 0.000183075 us/byte
3819070625: global: Predicted memory time = 23.996 us
3819083125: global: Predicted memory time / byte = 0.00018277 us/byte
3819095625: global: Predicted memory time = 11 us
3819108125: global: Predicted memory time / byte = 9.57947e-05 us/byte
3819120625: global: Predicted memory time = 6 us
3832742375: system.acctest.elem_matrix0_dma: SRC:0x00000000820a8780, DST:0x0000000024000020, LEN:65536
3832976875: global: Timer #0 stopped at tick 3832976875. Duration: 14519375
3832990000: global: Number of accelerators running = 1
3844734375: system.acctest.elem_matrix0_dma: Transfer completed in 11.992 us
3844852500: global: Timer #0 started at tick 3844852500
3844943125: global: Timer #1 started at tick 3844943125
3845221875: global: Timer #1 stopped at tick 3845221875. Duration: 278750
3858882375: system.acctest.elem_matrix0_dma: SRC:0x0000000082038780, DST:0x0000000024010020, LEN:65536
3859115625: global: Timer #0 stopped at tick 3859115625. Duration: 14263125
3859130000: global: Number of accelerators running = 1
3870906375: system.acctest.elem_matrix0_dma: Transfer completed in 12.024 us
3870980625: global: Timer #0 started at tick 3870980625
3871065000: global: Timer #1 started at tick 3871065000
3871206875: global: Timer #1 stopped at tick 3871206875. Duration: 141875
3872911250: global: Timer #0 stopped at tick 3872911250. Duration: 1930625
3872925625: global: Number of accelerators running = 1
********************************************************************************
system.acctest.elem_matrix0.compute
   ========= Performance Analysis =============
   Setup Time:                      8.764660seconds
   Simulation Time:                 154.594786seconds
   System Clock:                    1.000000GHz
   Transistor Latency:              1ns
   Runtime:                         10932 cycles
   Runtime:                         10.932000 us
   Stalls:                          1 cycles
   Executed Nodes:                  10930 cycles

********************************************************************************
   ========= Performance Analysis =================
   Setup Time:                      8764660475.000000ns
   Simulation Time:                 154594785507.000000ns
   System Clock:                    1.000000GHz
   Transistor Latency:              0ns
   Runtime:                         10932 cycles
   Runtime:                         0.000001 seconds
   Stalls:                          1 cycles
       Load Only:                   0 cycles
       Store Only:                  1 cycles
       Compute Only:                0 cycles
       Compute & Store:             0 cycles
       Load & Store:                0 cycles
       Load & Compute:              0 cycles
       Load & Compute & Store:      0 cycles
   Executed Nodes:                  10930 cycles
       Load Only:                   0 cycles
       Store Only:                  4 cycles
       Compute Only:                1 cycles
       Compute & Store:             21 cycles
       Load & Store:                0 cycles
       Load & Compute:              6 cycles
       Load & Compute & Store:      10898 cycles

   ========= Runtime FU's ========= (Max | Avg) ===
   Counter FU's:                      32 | 0.046838
   Integer Add/Sub FU's:               0 | 0.000000
   Integer Mul/Div FU's:               0 | 0.000000
   Integer Shifter FU's:               0 | 0.000000
   Integer Bitwise FU's:               1 | 0.000091
   Floating Point Float Add/Sub:       0 | 0.000000
   Floating Point Double Add/Sub:      0 | 0.000000
   Floating Point Float Mul/Div:      34 | 0.044252
   Floating Point Double Mul/Div:      0 | 0.000000
   0 Cycle Compare FU's:             102 | 0.046945
   GEP Instruction FU's:              96 | 0.046835
   Type Conversion FU's:               7 | 0.006782

   ========= Static FU's ==========================
   Counter FU's:                    0
   Integer Add/Sub FU's:            0
   Integer Mul/Div FU's:            0
   Integer Shifter FU's:            0
   Integer Bitwise FU's:            0
   Floating Point Float Add/Sub:    0
   Floating Point Double Add/Sub:   0
   Floating Point Float Mul/Div:    0
   Floating Point Double Mul/Div:   0
   0 Cycle Compare FU's:            0
   GEP Instruction FU's:            0
   Type Conversion FU's:            0
   Other:                           0

   ========= Pipeline Register Usage =============
   Total Number of Registers:       5641
   Max Register Usage Per Cycle:    137
   Avg Register Usage Per Cycle:    12.130992
   Avg Register Size (Bytes):       5.980606

   ========= Memory Configuration =================
   Cache Bus Ports:                 0
   Shared Cache Size:               0kB
   Local Bus Ports:                 0
   Private SPM Size:                256kB
   Private Read Ports:              0
   Private Write Ports:             0
   Private Read Bus Width:          64
   Private Write Bus Width:         64
       Memory Reads:                0
       Memory Writes:               0
   ========= Power Analysis ======================
   FU Leakage Power:                0.045377 mW 
   FU Dynamic Power:                0.142576 mW 
   FU Total Power:                  0.187953 mW 

   Registers Leakage Power:          0.005281 mW 
   Registers Dynamic Power:          0.015326 mW 
       Register Reads (Bits):        132616
       Register Writes (Bits):       133658
   Registers Total Power:            0.020607 mW

   SPM Leakage Power:               0.104100 mW
   SPM Read Dynamic Power:          5.190014 mW
   SPM Write Dynamic Power:         3.846212 mW
   SPM Total Power:                 9.140327 mW

   Cache Leakage Power:             0.000000 mW
   Cache Read Dynamic Power:        0.000000 mW
   Cache Write Dynamic Power:       0.000000 mW
   Cache Total Power:               0.000000 mW

   Accelerator Power:               0.208559 mW
   Accelerator Power (SPM):         9.348887 mW
   Accelerator Power (Cache):       0.208559 mW

   ========= Area Analysis =======================
   FU Area:                         5472.068359 um^2 (0.005472 mm^2)
   Register Area:                   429.271088 um^2 (0.000429 mm^2)
   SPM Area:                        2177.365505 um^2 (0.002177 mm^2)
   Cache Area:                      0.000000 um^2 (0.000000 mm^2)

   Accelerator Area:                5901.339355 um^2 (0.005901 mm^2)
   Accelerator Area (SPM):          8078.704860 um^2 (0.008079 mm^2)
   Accelerator Area (Cache):        5901.339355 um^2 (0.005901 mm^2)

   ========= SPM Resizing  =======================
   SPM Optimized Leakage Power:     0.004248 mW
   SPM Opt Area:                    178.524902 um^2

3883711250: global: Timer #0 started at tick 3883711250
3884025625: global: Timer #3 started at tick 3884025625
3884181875: global: Timer #3 stopped at tick 3884181875. Duration: 156250
3884229375: global: Timer #2 started at tick 3884229375
3884384375: global: Timer #2 stopped at tick 3884384375. Duration: 155000
3884685000: global: DAG ID = 0
3884698750: global: Node ID = 5
3884718750: global: Node deadline difference = -3434
3884731250: global: Predicted memory time / byte = 0.000186569 us/byte
3884743750: global: Predicted memory time = 36.681 us
3884756250: global: Predicted memory time / byte = 9.57947e-05 us/byte
3884768750: global: Predicted memory time = 18.834 us
3884781250: global: Predicted memory time / byte = 0.000184067 us/byte
3884793750: global: Predicted memory time = 24 us
3884806250: global: Predicted memory time / byte = 0 us/byte
3884818750: global: Predicted memory time = 0 us
3898407375: system.acctest.elem_matrix0_dma: SRC:0x0000000082048780, DST:0x0000000024000020, LEN:65536
3898614375: global: Timer #0 stopped at tick 3898614375. Duration: 14903125
3898627500: global: Number of accelerators running = 1
3910384375: system.acctest.elem_matrix0_dma: Transfer completed in 11.977 us
3910457500: global: Timer #0 started at tick 3910457500
3910505625: global: Timer #1 started at tick 3910505625
3910782500: global: Timer #1 stopped at tick 3910782500. Duration: 276875
3912485000: global: Timer #0 stopped at tick 3912485000. Duration: 2027500
3912499375: global: Number of accelerators running = 1
********************************************************************************
system.acctest.elem_matrix0.compute
   ========= Performance Analysis =============
   Setup Time:                      7.361261seconds
   Simulation Time:                 158.957081seconds
   System Clock:                    1.000000GHz
   Transistor Latency:              1ns
   Runtime:                         10932 cycles
   Runtime:                         10.932000 us
   Stalls:                          0 cycles
   Executed Nodes:                  10931 cycles

********************************************************************************
   ========= Performance Analysis =================
   Setup Time:                      7361260933.000000ns
   Simulation Time:                 158957081306.000000ns
   System Clock:                    1.000000GHz
   Transistor Latency:              0ns
   Runtime:                         10932 cycles
   Runtime:                         0.000001 seconds
   Stalls:                          0 cycles
       Load Only:                   0 cycles
       Store Only:                  0 cycles
       Compute Only:                0 cycles
       Compute & Store:             0 cycles
       Load & Store:                0 cycles
       Load & Compute:              0 cycles
       Load & Compute & Store:      0 cycles
   Executed Nodes:                  10931 cycles
       Load Only:                   0 cycles
       Store Only:                  5 cycles
       Compute Only:                1 cycles
       Compute & Store:             21 cycles
       Load & Store:                0 cycles
       Load & Compute:              7 cycles
       Load & Compute & Store:      10897 cycles

   ========= Runtime FU's ========= (Max | Avg) ===
   Counter FU's:                      32 | 0.046838
   Integer Add/Sub FU's:               0 | 0.000000
   Integer Mul/Div FU's:               0 | 0.000000
   Integer Shifter FU's:               0 | 0.000000
   Integer Bitwise FU's:               1 | 0.000091
   Floating Point Float Add/Sub:      34 | 0.044252
   Floating Point Double Add/Sub:      0 | 0.000000
   Floating Point Float Mul/Div:       0 | 0.000000
   Floating Point Double Mul/Div:      0 | 0.000000
   0 Cycle Compare FU's:             102 | 0.046974
   GEP Instruction FU's:              96 | 0.046835
   Type Conversion FU's:               7 | 0.006782

   ========= Static FU's ==========================
   Counter FU's:                    0
   Integer Add/Sub FU's:            0
   Integer Mul/Div FU's:            0
   Integer Shifter FU's:            0
   Integer Bitwise FU's:            0
   Floating Point Float Add/Sub:    0
   Floating Point Double Add/Sub:   0
   Floating Point Float Mul/Div:    0
   Floating Point Double Mul/Div:   0
   0 Cycle Compare FU's:            0
   GEP Instruction FU's:            0
   Type Conversion FU's:            0
   Other:                           0

   ========= Pipeline Register Usage =============
   Total Number of Registers:       5641
   Max Register Usage Per Cycle:    138
   Avg Register Usage Per Cycle:    12.130992
   Avg Register Size (Bytes):       5.980606

   ========= Memory Configuration =================
   Cache Bus Ports:                 0
   Shared Cache Size:               0kB
   Local Bus Ports:                 0
   Private SPM Size:                256kB
   Private Read Ports:              0
   Private Write Ports:             0
   Private Read Bus Width:          64
   Private Write Bus Width:         64
       Memory Reads:                0
       Memory Writes:               0
   ========= Power Analysis ======================
   FU Leakage Power:                0.519269 mW 
   FU Dynamic Power:                0.154621 mW 
   FU Total Power:                  0.673890 mW 

   Registers Leakage Power:          0.005281 mW 
   Registers Dynamic Power:          0.015326 mW 
       Register Reads (Bits):        132616
       Register Writes (Bits):       133658
   Registers Total Power:            0.020607 mW

   SPM Leakage Power:               0.104100 mW
   SPM Read Dynamic Power:          5.599688 mW
   SPM Write Dynamic Power:         4.937352 mW
   SPM Total Power:                 10.641140 mW

   Cache Leakage Power:             0.000000 mW
   Cache Read Dynamic Power:        0.000000 mW
   Cache Write Dynamic Power:       0.000000 mW
   Cache Total Power:               0.000000 mW

   Accelerator Power:               0.694497 mW
   Accelerator Power (SPM):         11.335637 mW
   Accelerator Power (Cache):       0.694497 mW

   ========= Area Analysis =======================
   FU Area:                         70212.562500 um^2 (0.070213 mm^2)
   Register Area:                   429.271088 um^2 (0.000429 mm^2)
   SPM Area:                        2177.365505 um^2 (0.002177 mm^2)
   Cache Area:                      0.000000 um^2 (0.000000 mm^2)

   Accelerator Area:                70641.835938 um^2 (0.070642 mm^2)
   Accelerator Area (SPM):          72819.201442 um^2 (0.072819 mm^2)
   Accelerator Area (Cache):        70641.835938 um^2 (0.070642 mm^2)

   ========= SPM Resizing  =======================
   SPM Optimized Leakage Power:     0.004248 mW
   SPM Opt Area:                    178.524902 um^2

3923214375: global: Timer #0 started at tick 3923214375
3923464375: global: Timer #3 started at tick 3923464375
3923671250: global: Timer #3 stopped at tick 3923671250. Duration: 206875
3923718750: global: Timer #2 started at tick 3923718750
3923871875: global: Timer #2 stopped at tick 3923871875. Duration: 153125
3924106250: global: DAG ID = 0
3924120000: global: Node ID = 6
3924133125: global: Node deadline difference = -3451
3924145625: global: Predicted memory time / byte = 0.00018396 us/byte
3924158125: global: Predicted memory time = 36.168 us
3924170625: global: Predicted memory time / byte = 0.00018396 us/byte
3924183125: global: Predicted memory time = 24.112 us
3924195625: global: Predicted memory time / byte = 0.000182571 us/byte
3924208125: global: Predicted memory time = 11 us
3924220625: global: Predicted memory time / byte = 0 us/byte
3924233125: global: Predicted memory time = 0 us
3925772500: global: Timer #0 stopped at tick 3925772500. Duration: 2558125
3925785625: global: Number of accelerators running = 1
********************************************************************************
system.acctest.elem_matrix0.compute
   ========= Performance Analysis =============
   Setup Time:                      8.108958seconds
   Simulation Time:                 121.940650seconds
   System Clock:                    1.000000GHz
   Transistor Latency:              1ns
   Runtime:                         8316 cycles
   Runtime:                         8.316000 us
   Stalls:                          82 cycles
   Executed Nodes:                  8233 cycles

********************************************************************************
   ========= Performance Analysis =================
   Setup Time:                      8108958257.999999ns
   Simulation Time:                 121940649956.000000ns
   System Clock:                    1.000000GHz
   Transistor Latency:              0ns
   Runtime:                         8316 cycles
   Runtime:                         0.000001 seconds
   Stalls:                          82 cycles
       Load Only:                   0 cycles
       Store Only:                  77 cycles
       Compute Only:                0 cycles
       Compute & Store:             5 cycles
       Load & Store:                0 cycles
       Load & Compute:              0 cycles
       Load & Compute & Store:      0 cycles
   Executed Nodes:                  8233 cycles
       Load Only:                   0 cycles
       Store Only:                  11 cycles
       Compute Only:                1827 cycles
       Compute & Store:             3453 cycles
       Load & Store:                0 cycles
       Load & Compute:              774 cycles
       Load & Compute & Store:      2168 cycles

   ========= Runtime FU's ========= (Max | Avg) ===
   Counter FU's:                      32 | 0.061572
   Integer Add/Sub FU's:               0 | 0.000000
   Integer Mul/Div FU's:               0 | 0.000000
   Integer Shifter FU's:               0 | 0.000000
   Integer Bitwise FU's:               1 | 0.000120
   Floating Point Float Add/Sub:      80 | 0.302014
   Floating Point Double Add/Sub:      0 | 0.000000
   Floating Point Float Mul/Div:      35 | 0.056511
   Floating Point Double Mul/Div:      0 | 0.000000
   0 Cycle Compare FU's:              15 | 0.024828
   GEP Instruction FU's:              64 | 0.061568
   Type Conversion FU's:              66 | 0.120964

   ========= Static FU's ==========================
   Counter FU's:                    0
   Integer Add/Sub FU's:            0
   Integer Mul/Div FU's:            0
   Integer Shifter FU's:            0
   Integer Bitwise FU's:            0
   Floating Point Float Add/Sub:    0
   Floating Point Double Add/Sub:   0
   Floating Point Float Mul/Div:    0
   Floating Point Double Mul/Div:   0
   0 Cycle Compare FU's:            0
   GEP Instruction FU's:            0
   Type Conversion FU's:            0
   Other:                           0

   ========= Pipeline Register Usage =============
   Total Number of Registers:       5641
   Max Register Usage Per Cycle:    126
   Avg Register Usage Per Cycle:    27.706590
   Avg Register Size (Bytes):       5.993295

   ========= Memory Configuration =================
   Cache Bus Ports:                 0
   Shared Cache Size:               0kB
   Local Bus Ports:                 0
   Private SPM Size:                256kB
   Private Read Ports:              0
   Private Write Ports:             0
   Private Read Bus Width:          64
   Private Write Bus Width:         64
       Memory Reads:                0
       Memory Writes:               0
   ========= Power Analysis ======================
   FU Leakage Power:                1.265749 mW 
   FU Dynamic Power:                1.166708 mW 
   FU Total Power:                  2.432457 mW 

   Registers Leakage Power:          0.011908 mW 
   Registers Dynamic Power:          0.045645 mW 
       Register Reads (Bits):        230408
       Register Writes (Bits):       231961
   Registers Total Power:            0.057553 mW

   SPM Leakage Power:               0.104100 mW
   SPM Read Dynamic Power:          5.804542 mW
   SPM Write Dynamic Power:         4.673423 mW
   SPM Total Power:                 10.582065 mW

   Cache Leakage Power:             0.000000 mW
   Cache Read Dynamic Power:        0.000000 mW
   Cache Write Dynamic Power:       0.000000 mW
   Cache Total Power:               0.000000 mW

   Accelerator Power:               2.490010 mW
   Accelerator Power (SPM):         13.072076 mW
   Accelerator Power (Cache):       2.490010 mW

   ========= Area Analysis =======================
   FU Area:                         170559.593750 um^2 (0.170560 mm^2)
   Register Area:                   967.909180 um^2 (0.000968 mm^2)
   SPM Area:                        2177.365505 um^2 (0.002177 mm^2)
   Cache Area:                      0.000000 um^2 (0.000000 mm^2)

   Accelerator Area:                171527.500000 um^2 (0.171527 mm^2)
   Accelerator Area (SPM):          173704.865505 um^2 (0.173705 mm^2)
   Accelerator Area (Cache):        171527.500000 um^2 (0.171527 mm^2)

   ========= SPM Resizing  =======================
   SPM Optimized Leakage Power:     0.003887 mW
   SPM Opt Area:                    172.850411 um^2

3933953125: global: Timer #0 started at tick 3933953125
3947475875: system.acctest.elem_matrix0_dma: SRC:0x0000000024000020, DST:0x0000000082138780, LEN:65536
3947831250: global: Timer #0 stopped at tick 3947831250. Duration: 13878125
3947845625: global: Number of accelerators running = 1
3953848875: system.acctest.elem_matrix0_dma: Transfer completed in 6.373 us
3953922500: global: Timer #0 started at tick 3953922500
3953976250: global: Timer #1 started at tick 3953976250
3954252500: global: Timer #1 stopped at tick 3954252500. Duration: 276250
3954562500: global: DAG ID = 0
3954576250: global: Node ID = 7
3954595625: global: Node deadline difference = -3461
3954608125: global: Predicted memory time / byte = 0.000182571 us/byte
3954620625: global: Predicted memory time = 23.93 us
3954633125: global: Predicted memory time / byte = 0.000182571 us/byte
3954645625: global: Predicted memory time = 23.93 us
3954658125: global: Predicted memory time / byte = 0 us/byte
3954670625: global: Predicted memory time = 0 us
3954683125: global: Predicted memory time / byte = 9.70917e-05 us/byte
3954695625: global: Predicted memory time = 6 us
3968250875: system.acctest.elem_matrix0_dma: SRC:0x00000000820a8780, DST:0x0000000024000020, LEN:65536
3968464375: global: Timer #0 stopped at tick 3968464375. Duration: 14541875
3968478750: global: Number of accelerators running = 1
3980224875: system.acctest.elem_matrix0_dma: Transfer completed in 11.974 us
3980342500: global: Timer #0 started at tick 3980342500
3980388125: global: Timer #1 started at tick 3980388125
3980666875: global: Timer #1 stopped at tick 3980666875. Duration: 278750
3994282375: system.acctest.elem_matrix0_dma: SRC:0x0000000082058780, DST:0x0000000024010020, LEN:65536
3994504375: global: Timer #0 stopped at tick 3994504375. Duration: 14161875
3994518750: global: Number of accelerators running = 1
4006256375: system.acctest.elem_matrix0_dma: Transfer completed in 11.974 us
4006330625: global: Timer #0 started at tick 4006330625
4006415000: global: Timer #1 started at tick 4006415000
4006556875: global: Timer #1 stopped at tick 4006556875. Duration: 141875
4008231250: global: Timer #0 stopped at tick 4008231250. Duration: 1900625
4008245625: global: Number of accelerators running = 1
********************************************************************************
system.acctest.elem_matrix0.compute
   ========= Performance Analysis =============
   Setup Time:                      7.765359seconds
   Simulation Time:                 159.913738seconds
   System Clock:                    1.000000GHz
   Transistor Latency:              1ns
   Runtime:                         10932 cycles
   Runtime:                         10.932000 us
   Stalls:                          1 cycles
   Executed Nodes:                  10930 cycles

********************************************************************************
   ========= Performance Analysis =================
   Setup Time:                      7765359366.000000ns
   Simulation Time:                 159913737590.000000ns
   System Clock:                    1.000000GHz
   Transistor Latency:              0ns
   Runtime:                         10932 cycles
   Runtime:                         0.000001 seconds
   Stalls:                          1 cycles
       Load Only:                   0 cycles
       Store Only:                  1 cycles
       Compute Only:                0 cycles
       Compute & Store:             0 cycles
       Load & Store:                0 cycles
       Load & Compute:              0 cycles
       Load & Compute & Store:      0 cycles
   Executed Nodes:                  10930 cycles
       Load Only:                   0 cycles
       Store Only:                  4 cycles
       Compute Only:                1 cycles
       Compute & Store:             21 cycles
       Load & Store:                0 cycles
       Load & Compute:              6 cycles
       Load & Compute & Store:      10898 cycles

   ========= Runtime FU's ========= (Max | Avg) ===
   Counter FU's:                      32 | 0.046838
   Integer Add/Sub FU's:               0 | 0.000000
   Integer Mul/Div FU's:               0 | 0.000000
   Integer Shifter FU's:               0 | 0.000000
   Integer Bitwise FU's:               1 | 0.000091
   Floating Point Float Add/Sub:       0 | 0.000000
   Floating Point Double Add/Sub:      0 | 0.000000
   Floating Point Float Mul/Div:      34 | 0.044252
   Floating Point Double Mul/Div:      0 | 0.000000
   0 Cycle Compare FU's:             102 | 0.046945
   GEP Instruction FU's:              96 | 0.046835
   Type Conversion FU's:               7 | 0.006782

   ========= Static FU's ==========================
   Counter FU's:                    0
   Integer Add/Sub FU's:            0
   Integer Mul/Div FU's:            0
   Integer Shifter FU's:            0
   Integer Bitwise FU's:            0
   Floating Point Float Add/Sub:    0
   Floating Point Double Add/Sub:   0
   Floating Point Float Mul/Div:    0
   Floating Point Double Mul/Div:   0
   0 Cycle Compare FU's:            0
   GEP Instruction FU's:            0
   Type Conversion FU's:            0
   Other:                           0

   ========= Pipeline Register Usage =============
   Total Number of Registers:       5641
   Max Register Usage Per Cycle:    137
   Avg Register Usage Per Cycle:    12.130992
   Avg Register Size (Bytes):       5.980606

   ========= Memory Configuration =================
   Cache Bus Ports:                 0
   Shared Cache Size:               0kB
   Local Bus Ports:                 0
   Private SPM Size:                256kB
   Private Read Ports:              0
   Private Write Ports:             0
   Private Read Bus Width:          64
   Private Write Bus Width:         64
       Memory Reads:                0
       Memory Writes:               0
   ========= Power Analysis ======================
   FU Leakage Power:                0.045377 mW 
   FU Dynamic Power:                0.142576 mW 
   FU Total Power:                  0.187953 mW 

   Registers Leakage Power:          0.005281 mW 
   Registers Dynamic Power:          0.015326 mW 
       Register Reads (Bits):        132616
       Register Writes (Bits):       133658
   Registers Total Power:            0.020607 mW

   SPM Leakage Power:               0.104100 mW
   SPM Read Dynamic Power:          6.227969 mW
   SPM Write Dynamic Power:         4.890273 mW
   SPM Total Power:                 11.222343 mW

   Cache Leakage Power:             0.000000 mW
   Cache Read Dynamic Power:        0.000000 mW
   Cache Write Dynamic Power:       0.000000 mW
   Cache Total Power:               0.000000 mW

   Accelerator Power:               0.208559 mW
   Accelerator Power (SPM):         11.430902 mW
   Accelerator Power (Cache):       0.208559 mW

   ========= Area Analysis =======================
   FU Area:                         5472.068359 um^2 (0.005472 mm^2)
   Register Area:                   429.271088 um^2 (0.000429 mm^2)
   SPM Area:                        2177.365505 um^2 (0.002177 mm^2)
   Cache Area:                      0.000000 um^2 (0.000000 mm^2)

   Accelerator Area:                5901.339355 um^2 (0.005901 mm^2)
   Accelerator Area (SPM):          8078.704860 um^2 (0.008079 mm^2)
   Accelerator Area (Cache):        5901.339355 um^2 (0.005901 mm^2)

   ========= SPM Resizing  =======================
   SPM Optimized Leakage Power:     0.004248 mW
   SPM Opt Area:                    178.524902 um^2

4019009375: global: Timer #0 started at tick 4019009375
4019250000: global: Timer #3 started at tick 4019250000
4019448125: global: Timer #3 stopped at tick 4019448125. Duration: 198125
4019495625: global: Timer #2 started at tick 4019495625
4019601875: global: Timer #2 stopped at tick 4019601875. Duration: 106250
4019843125: global: DAG ID = 0
4019856875: global: Node ID = 8
4019876875: global: Node deadline difference = -3299
4019889375: global: Predicted memory time / byte = 0.000186569 us/byte
4019901875: global: Predicted memory time = 36.681 us
4019914375: global: Predicted memory time / byte = 9.70917e-05 us/byte
4019926875: global: Predicted memory time = 19.089 us
4019939375: global: Predicted memory time / byte = 0.000183189 us/byte
4019951875: global: Predicted memory time = 24 us
4019964375: global: Predicted memory time / byte = 0 us/byte
4019976875: global: Predicted memory time = 0 us
4033486625: system.acctest.elem_matrix0_dma: SRC:0x0000000082068780, DST:0x0000000024000020, LEN:65536
4033720000: global: Timer #0 stopped at tick 4033720000. Duration: 14710625
4033733125: global: Number of accelerators running = 1
4045593625: system.acctest.elem_matrix0_dma: Transfer completed in 12.107 us
4045667500: global: Timer #0 started at tick 4045667500
4045709375: global: Timer #1 started at tick 4045709375
4045976250: global: Timer #1 stopped at tick 4045976250. Duration: 266875
4047631250: global: Timer #0 stopped at tick 4047631250. Duration: 1963750
4047645625: global: Number of accelerators running = 1
********************************************************************************
system.acctest.elem_matrix0.compute
   ========= Performance Analysis =============
   Setup Time:                      7.681357seconds
   Simulation Time:                 155.554206seconds
   System Clock:                    1.000000GHz
   Transistor Latency:              1ns
   Runtime:                         10932 cycles
   Runtime:                         10.932000 us
   Stalls:                          0 cycles
   Executed Nodes:                  10931 cycles

********************************************************************************
   ========= Performance Analysis =================
   Setup Time:                      7681357349.000000ns
   Simulation Time:                 155554206059.000000ns
   System Clock:                    1.000000GHz
   Transistor Latency:              0ns
   Runtime:                         10932 cycles
   Runtime:                         0.000001 seconds
   Stalls:                          0 cycles
       Load Only:                   0 cycles
       Store Only:                  0 cycles
       Compute Only:                0 cycles
       Compute & Store:             0 cycles
       Load & Store:                0 cycles
       Load & Compute:              0 cycles
       Load & Compute & Store:      0 cycles
   Executed Nodes:                  10931 cycles
       Load Only:                   0 cycles
       Store Only:                  5 cycles
       Compute Only:                1 cycles
       Compute & Store:             21 cycles
       Load & Store:                0 cycles
       Load & Compute:              7 cycles
       Load & Compute & Store:      10897 cycles

   ========= Runtime FU's ========= (Max | Avg) ===
   Counter FU's:                      32 | 0.046838
   Integer Add/Sub FU's:               0 | 0.000000
   Integer Mul/Div FU's:               0 | 0.000000
   Integer Shifter FU's:               0 | 0.000000
   Integer Bitwise FU's:               1 | 0.000091
   Floating Point Float Add/Sub:      34 | 0.044252
   Floating Point Double Add/Sub:      0 | 0.000000
   Floating Point Float Mul/Div:       0 | 0.000000
   Floating Point Double Mul/Div:      0 | 0.000000
   0 Cycle Compare FU's:             102 | 0.046974
   GEP Instruction FU's:              96 | 0.046835
   Type Conversion FU's:               7 | 0.006782

   ========= Static FU's ==========================
   Counter FU's:                    0
   Integer Add/Sub FU's:            0
   Integer Mul/Div FU's:            0
   Integer Shifter FU's:            0
   Integer Bitwise FU's:            0
   Floating Point Float Add/Sub:    0
   Floating Point Double Add/Sub:   0
   Floating Point Float Mul/Div:    0
   Floating Point Double Mul/Div:   0
   0 Cycle Compare FU's:            0
   GEP Instruction FU's:            0
   Type Conversion FU's:            0
   Other:                           0

   ========= Pipeline Register Usage =============
   Total Number of Registers:       5641
   Max Register Usage Per Cycle:    138
   Avg Register Usage Per Cycle:    12.130992
   Avg Register Size (Bytes):       5.980606

   ========= Memory Configuration =================
   Cache Bus Ports:                 0
   Shared Cache Size:               0kB
   Local Bus Ports:                 0
   Private SPM Size:                256kB
   Private Read Ports:              0
   Private Write Ports:             0
   Private Read Bus Width:          64
   Private Write Bus Width:         64
       Memory Reads:                0
       Memory Writes:               0
   ========= Power Analysis ======================
   FU Leakage Power:                0.519269 mW 
   FU Dynamic Power:                0.154621 mW 
   FU Total Power:                  0.673890 mW 

   Registers Leakage Power:          0.005281 mW 
   Registers Dynamic Power:          0.015326 mW 
       Register Reads (Bits):        132616
       Register Writes (Bits):       133658
   Registers Total Power:            0.020607 mW

   SPM Leakage Power:               0.104100 mW
   SPM Read Dynamic Power:          7.306295 mW
   SPM Write Dynamic Power:         5.103456 mW
   SPM Total Power:                 12.513852 mW

   Cache Leakage Power:             0.000000 mW
   Cache Read Dynamic Power:        0.000000 mW
   Cache Write Dynamic Power:       0.000000 mW
   Cache Total Power:               0.000000 mW

   Accelerator Power:               0.694497 mW
   Accelerator Power (SPM):         13.208349 mW
   Accelerator Power (Cache):       0.694497 mW

   ========= Area Analysis =======================
   FU Area:                         70212.562500 um^2 (0.070213 mm^2)
   Register Area:                   429.271088 um^2 (0.000429 mm^2)
   SPM Area:                        2177.365505 um^2 (0.002177 mm^2)
   Cache Area:                      0.000000 um^2 (0.000000 mm^2)

   Accelerator Area:                70641.835938 um^2 (0.070642 mm^2)
   Accelerator Area (SPM):          72819.201442 um^2 (0.072819 mm^2)
   Accelerator Area (Cache):        70641.835938 um^2 (0.070642 mm^2)

   ========= SPM Resizing  =======================
   SPM Optimized Leakage Power:     0.004248 mW
   SPM Opt Area:                    178.524902 um^2

4058399375: global: Timer #0 started at tick 4058399375
4058638125: global: Timer #3 started at tick 4058638125
4058775000: global: Timer #3 stopped at tick 4058775000. Duration: 136875
4058822500: global: Timer #2 started at tick 4058822500
4058946250: global: Timer #2 stopped at tick 4058946250. Duration: 123750
4059238125: global: DAG ID = 0
4059251875: global: Node ID = 9
4059265000: global: Node deadline difference = -3316
4059277500: global: Predicted memory time / byte = 0.000183197 us/byte
4059290000: global: Predicted memory time = 36.018 us
4059302500: global: Predicted memory time / byte = 0.000183197 us/byte
4059315000: global: Predicted memory time = 24.012 us
4059327500: global: Predicted memory time / byte = 0.00018457 us/byte
4059340000: global: Predicted memory time = 12 us
4059352500: global: Predicted memory time / byte = 0 us/byte
4059365000: global: Predicted memory time = 0 us
4060886875: global: Timer #0 stopped at tick 4060886875. Duration: 2487500
4060900000: global: Number of accelerators running = 1
********************************************************************************
system.acctest.elem_matrix0.compute
   ========= Performance Analysis =============
   Setup Time:                      7.473888seconds
   Simulation Time:                 127.851125seconds
   System Clock:                    1.000000GHz
   Transistor Latency:              1ns
   Runtime:                         8344 cycles
   Runtime:                         8.344000 us
   Stalls:                          106 cycles
   Executed Nodes:                  8237 cycles

********************************************************************************
   ========= Performance Analysis =================
   Setup Time:                      7473887515.000000ns
   Simulation Time:                 127851125095.000000ns
   System Clock:                    1.000000GHz
   Transistor Latency:              0ns
   Runtime:                         8344 cycles
   Runtime:                         0.000001 seconds
   Stalls:                          106 cycles
       Load Only:                   0 cycles
       Store Only:                  101 cycles
       Compute Only:                0 cycles
       Compute & Store:             5 cycles
       Load & Store:                0 cycles
       Load & Compute:              0 cycles
       Load & Compute & Store:      0 cycles
   Executed Nodes:                  8237 cycles
       Load Only:                   0 cycles
       Store Only:                  11 cycles
       Compute Only:                2086 cycles
       Compute & Store:             3860 cycles
       Load & Store:                0 cycles
       Load & Compute:              519 cycles
       Load & Compute & Store:      1761 cycles

   ========= Runtime FU's ========= (Max | Avg) ===
   Counter FU's:                      32 | 0.061365
   Integer Add/Sub FU's:               0 | 0.000000
   Integer Mul/Div FU's:               0 | 0.000000
   Integer Shifter FU's:               0 | 0.000000
   Integer Bitwise FU's:               1 | 0.000120
   Floating Point Float Add/Sub:      76 | 0.476229
   Floating Point Double Add/Sub:      0 | 0.000000
   Floating Point Float Mul/Div:      53 | 0.193968
   Floating Point Double Mul/Div:      0 | 0.000000
   0 Cycle Compare FU's:              15 | 0.024744
   GEP Instruction FU's:              64 | 0.061361
   Type Conversion FU's:              60 | 0.132426

   ========= Static FU's ==========================
   Counter FU's:                    0
   Integer Add/Sub FU's:            0
   Integer Mul/Div FU's:            0
   Integer Shifter FU's:            0
   Integer Bitwise FU's:            0
   Floating Point Float Add/Sub:    0
   Floating Point Double Add/Sub:   0
   Floating Point Float Mul/Div:    0
   Floating Point Double Mul/Div:   0
   0 Cycle Compare FU's:            0
   GEP Instruction FU's:            0
   Type Conversion FU's:            0
   Other:                           0

   ========= Pipeline Register Usage =============
   Total Number of Registers:       5641
   Max Register Usage Per Cycle:    131
   Avg Register Usage Per Cycle:    31.540748
   Avg Register Size (Bytes):       5.745110

   ========= Memory Configuration =================
   Cache Bus Ports:                 0
   Shared Cache Size:               0kB
   Local Bus Ports:                 0
   Private SPM Size:                256kB
   Private Read Ports:              0
   Private Write Ports:             0
   Private Read Bus Width:          64
   Private Write Bus Width:         64
       Memory Reads:                0
       Memory Writes:               0
   ========= Power Analysis ======================
   FU Leakage Power:                1.204730 mW 
   FU Dynamic Power:                1.740443 mW 
   FU Total Power:                  2.945173 mW 

   Registers Leakage Power:          0.013106 mW 
   Registers Dynamic Power:          0.057551 mW 
       Register Reads (Bits):        263176
       Register Writes (Bits):       264729
   Registers Total Power:            0.070657 mW

   SPM Leakage Power:               0.104100 mW
   SPM Read Dynamic Power:          7.503291 mW
   SPM Write Dynamic Power:         5.320358 mW
   SPM Total Power:                 12.927749 mW

   Cache Leakage Power:             0.000000 mW
   Cache Read Dynamic Power:        0.000000 mW
   Cache Write Dynamic Power:       0.000000 mW
   Cache Total Power:               0.000000 mW

   Accelerator Power:               3.015830 mW
   Accelerator Power (SPM):         15.943580 mW
   Accelerator Power (Cache):       3.015830 mW

   ========= Area Analysis =======================
   FU Area:                         162305.218750 um^2 (0.162305 mm^2)
   Register Area:                   1065.283691 um^2 (0.001065 mm^2)
   SPM Area:                        2177.365505 um^2 (0.002177 mm^2)
   Cache Area:                      0.000000 um^2 (0.000000 mm^2)

   Accelerator Area:                163370.500000 um^2 (0.163371 mm^2)
   Accelerator Area (SPM):          165547.865505 um^2 (0.165548 mm^2)
   Accelerator Area (Cache):        163370.500000 um^2 (0.163371 mm^2)

   ========= SPM Resizing  =======================
   SPM Optimized Leakage Power:     0.004070 mW
   SPM Opt Area:                    175.836670 um^2

4069101250: global: Timer #0 started at tick 4069101250
4069264375: global: Timer #3 started at tick 4069264375
4069481875: global: Timer #3 stopped at tick 4069481875. Duration: 217500
4069529375: global: Timer #2 started at tick 4069529375
4069653125: global: Timer #2 stopped at tick 4069653125. Duration: 123750
4069888125: global: DAG ID = 0
4069901875: global: Node ID = 10
4069915000: global: Node deadline difference = -3346
4069927500: global: Predicted memory time / byte = 0.00018457 us/byte
4069940000: global: Predicted memory time = 24.192 us
4069952500: global: Predicted memory time / byte = 0.00018457 us/byte
4069965000: global: Predicted memory time = 24.192 us
4069977500: global: Predicted memory time / byte = 0 us/byte
4069990000: global: Predicted memory time = 0 us
4070002500: global: Predicted memory time / byte = 0 us/byte
4070015000: global: Predicted memory time = 0 us
4083390875: system.acctest.elem_matrix0_dma: SRC:0x0000000082138780, DST:0x0000000024010020, LEN:65536
4083591250: global: Timer #0 stopped at tick 4083591250. Duration: 14490000
4083604375: global: Number of accelerators running = 1
4095268875: system.acctest.elem_matrix0_dma: Transfer completed in 11.878 us
4095342500: global: Timer #0 started at tick 4095342500
4095381875: global: Timer #1 started at tick 4095381875
4095661875: global: Timer #1 stopped at tick 4095661875. Duration: 280000
4097341250: global: Timer #0 stopped at tick 4097341250. Duration: 1998750
4097355625: global: Number of accelerators running = 1
********************************************************************************
system.acctest.elem_matrix0.compute
   ========= Performance Analysis =============
   Setup Time:                      7.309387seconds
   Simulation Time:                 162.290538seconds
   System Clock:                    1.000000GHz
   Transistor Latency:              1ns
   Runtime:                         10932 cycles
   Runtime:                         10.932000 us
   Stalls:                          1 cycles
   Executed Nodes:                  10930 cycles

********************************************************************************
   ========= Performance Analysis =================
   Setup Time:                      7309387213.000000ns
   Simulation Time:                 162290538010.000000ns
   System Clock:                    1.000000GHz
   Transistor Latency:              0ns
   Runtime:                         10932 cycles
   Runtime:                         0.000001 seconds
   Stalls:                          1 cycles
       Load Only:                   0 cycles
       Store Only:                  1 cycles
       Compute Only:                0 cycles
       Compute & Store:             0 cycles
       Load & Store:                0 cycles
       Load & Compute:              0 cycles
       Load & Compute & Store:      0 cycles
   Executed Nodes:                  10930 cycles
       Load Only:                   0 cycles
[...]
   ========= Performance Analysis =============
   Setup Time:                      7.011457seconds
   Simulation Time:                 124.010086seconds
   System Clock:                    1.000000GHz
   Transistor Latency:              1ns
   Runtime:                         10932 cycles
   Runtime:                         10.932000 us
   Stalls:                          0 cycles
   Executed Nodes:                  10931 cycles

********************************************************************************
   ========= Performance Analysis =================
   Setup Time:                      7011456559.000000ns
   Simulation Time:                 124010085944.000000ns
   System Clock:                    1.000000GHz
   Transistor Latency:              0ns
   Runtime:                         10932 cycles
   Runtime:                         0.000001 seconds
   Stalls:                          0 cycles
       Load Only:                   0 cycles
       Store Only:                  0 cycles
       Compute Only:                0 cycles
       Compute & Store:             0 cycles
       Load & Store:                0 cycles
       Load & Compute:              0 cycles
       Load & Compute & Store:      0 cycles
   Executed Nodes:                  10931 cycles
       Load Only:                   0 cycles
       Store Only:                  5 cycles
       Compute Only:                1 cycles
       Compute & Store:             21 cycles
       Load & Store:                0 cycles
       Load & Compute:              7 cycles
       Load & Compute & Store:      10897 cycles

   ========= Runtime FU's ========= (Max | Avg) ===
   Counter FU's:                      32 | 0.046838
   Integer Add/Sub FU's:               0 | 0.000000
   Integer Mul/Div FU's:               0 | 0.000000
   Integer Shifter FU's:               0 | 0.000000
   Integer Bitwise FU's:               1 | 0.000091
   Floating Point Float Add/Sub:      34 | 0.044252
   Floating Point Double Add/Sub:      0 | 0.000000
   Floating Point Float Mul/Div:       0 | 0.000000
   Floating Point Double Mul/Div:      0 | 0.000000
   0 Cycle Compare FU's:             102 | 0.046974
   GEP Instruction FU's:              96 | 0.046835
   Type Conversion FU's:               7 | 0.006782

   ========= Static FU's ==========================
   Counter FU's:                    0
   Integer Add/Sub FU's:            0
   Integer Mul/Div FU's:            0
   Integer Shifter FU's:            0
   Integer Bitwise FU's:            0
   Floating Point Float Add/Sub:    0
   Floating Point Double Add/Sub:   0
   Floating Point Float Mul/Div:    0
   Floating Point Double Mul/Div:   0
   0 Cycle Compare FU's:            0
   GEP Instruction FU's:            0
   Type Conversion FU's:            0
   Other:                           0

   ========= Pipeline Register Usage =============
   Total Number of Registers:       5641
   Max Register Usage Per Cycle:    138
   Avg Register Usage Per Cycle:    12.130992
   Avg Register Size (Bytes):       5.980606

   ========= Memory Configuration =================
   Cache Bus Ports:                 0
   Shared Cache Size:               0kB
   Local Bus Ports:                 0
   Private SPM Size:                256kB
   Private Read Ports:              0
   Private Write Ports:             0
   Private Read Bus Width:          64
   Private Write Bus Width:         64
       Memory Reads:                0
       Memory Writes:               0
   ========= Power Analysis ======================
   FU Leakage Power:                0.519269 mW 
   FU Dynamic Power:                0.154621 mW 
   FU Total Power:                  0.673890 mW 

   Registers Leakage Power:          0.005281 mW 
   Registers Dynamic Power:          0.015326 mW 
       Register Reads (Bits):        132616
       Register Writes (Bits):       133658
   Registers Total Power:            0.020607 mW

   SPM Leakage Power:               0.104100 mW
   SPM Read Dynamic Power:          24.175040 mW
   SPM Write Dynamic Power:         20.046797 mW
   SPM Total Power:                 44.325938 mW

   Cache Leakage Power:             0.000000 mW
   Cache Read Dynamic Power:        0.000000 mW
   Cache Write Dynamic Power:       0.000000 mW
   Cache Total Power:               0.000000 mW

   Accelerator Power:               0.694497 mW
   Accelerator Power (SPM):         45.020435 mW
   Accelerator Power (Cache):       0.694497 mW

   ========= Area Analysis =======================
   FU Area:                         70212.562500 um^2 (0.070213 mm^2)
   Register Area:                   429.271088 um^2 (0.000429 mm^2)
   SPM Area:                        2177.365505 um^2 (0.002177 mm^2)
   Cache Area:                      0.000000 um^2 (0.000000 mm^2)

   Accelerator Area:                70641.835938 um^2 (0.070642 mm^2)
   Accelerator Area (SPM):          72819.201442 um^2 (0.072819 mm^2)
   Accelerator Area (Cache):        70641.835938 um^2 (0.070642 mm^2)

   ========= SPM Resizing  =======================
   SPM Optimized Leakage Power:     0.004248 mW
   SPM Opt Area:                    178.524902 um^2

9470976250: global: Timer #0 started at tick 9470976250
9471220000: global: Timer #3 started at tick 9471220000
9471355625: global: Timer #3 stopped at tick 9471355625. Duration: 135625
9471403125: global: Timer #2 started at tick 9471403125
9471478125: global: Timer #2 stopped at tick 9471478125. Duration: 75000
9471713750: global: DAG ID = 0
9471727500: global: Node ID = 140
9471740625: global: Node deadline difference = -1005
9471753125: global: Predicted memory time / byte = 0.000183624 us/byte
9471765625: global: Predicted memory time = 36.102 us
9471778125: global: Predicted memory time / byte = 0.000183624 us/byte
9471790625: global: Predicted memory time = 24.068 us
9471803125: global: Predicted memory time / byte = 0.000182343 us/byte
9471815625: global: Predicted memory time = 11 us
9471828125: global: Predicted memory time / byte = 0 us/byte
9471840625: global: Predicted memory time = 0 us
9473341250: global: Timer #0 stopped at tick 9473341250. Duration: 2365000
9473355000: global: Number of accelerators running = 1
********************************************************************************
system.acctest.elem_matrix0.compute
   ========= Performance Analysis =============
   Setup Time:                      7.708117seconds
   Simulation Time:                 101.243489seconds
   System Clock:                    1.000000GHz
   Transistor Latency:              1ns
   Runtime:                         8316 cycles
   Runtime:                         8.316000 us
   Stalls:                          82 cycles
   Executed Nodes:                  8233 cycles

********************************************************************************
   ========= Performance Analysis =================
   Setup Time:                      7708117314.000000ns
   Simulation Time:                 101243489372.000000ns
   System Clock:                    1.000000GHz
   Transistor Latency:              0ns
   Runtime:                         8316 cycles
   Runtime:                         0.000001 seconds
   Stalls:                          82 cycles
       Load Only:                   0 cycles
       Store Only:                  77 cycles
       Compute Only:                0 cycles
       Compute & Store:             5 cycles
       Load & Store:                0 cycles
       Load & Compute:              0 cycles
       Load & Compute & Store:      0 cycles
   Executed Nodes:                  8233 cycles
       Load Only:                   0 cycles
       Store Only:                  11 cycles
       Compute Only:                1827 cycles
       Compute & Store:             3453 cycles
       Load & Store:                0 cycles
       Load & Compute:              774 cycles
       Load & Compute & Store:      2168 cycles

   ========= Runtime FU's ========= (Max | Avg) ===
   Counter FU's:                      32 | 0.061572
   Integer Add/Sub FU's:               0 | 0.000000
   Integer Mul/Div FU's:               0 | 0.000000
   Integer Shifter FU's:               0 | 0.000000
   Integer Bitwise FU's:               1 | 0.000120
   Floating Point Float Add/Sub:      80 | 0.302014
   Floating Point Double Add/Sub:      0 | 0.000000
   Floating Point Float Mul/Div:      35 | 0.056511
   Floating Point Double Mul/Div:      0 | 0.000000
   0 Cycle Compare FU's:              15 | 0.024828
   GEP Instruction FU's:              64 | 0.061568
   Type Conversion FU's:              66 | 0.120964

   ========= Static FU's ==========================
   Counter FU's:                    0
   Integer Add/Sub FU's:            0
   Integer Mul/Div FU's:            0
   Integer Shifter FU's:            0
   Integer Bitwise FU's:            0
   Floating Point Float Add/Sub:    0
   Floating Point Double Add/Sub:   0
   Floating Point Float Mul/Div:    0
   Floating Point Double Mul/Div:   0
   0 Cycle Compare FU's:            0
   GEP Instruction FU's:            0
   Type Conversion FU's:            0
   Other:                           0

   ========= Pipeline Register Usage =============
   Total Number of Registers:       5641
   Max Register Usage Per Cycle:    126
   Avg Register Usage Per Cycle:    27.706590
   Avg Register Size (Bytes):       5.993295

   ========= Memory Configuration =================
   Cache Bus Ports:                 0
   Shared Cache Size:               0kB
   Local Bus Ports:                 0
   Private SPM Size:                256kB
   Private Read Ports:              0
   Private Write Ports:             0
   Private Read Bus Width:          64
   Private Write Bus Width:         64
       Memory Reads:                0
       Memory Writes:               0
   ========= Power Analysis ======================
   FU Leakage Power:                1.265749 mW 
   FU Dynamic Power:                1.166708 mW 
   FU Total Power:                  2.432457 mW 

   Registers Leakage Power:          0.011908 mW 
   Registers Dynamic Power:          0.045645 mW 
       Register Reads (Bits):        230408
       Register Writes (Bits):       231961
   Registers Total Power:            0.057553 mW

   SPM Leakage Power:               0.104100 mW
   SPM Read Dynamic Power:          24.225038 mW
   SPM Write Dynamic Power:         20.102301 mW
   SPM Total Power:                 44.431440 mW

   Cache Leakage Power:             0.000000 mW
   Cache Read Dynamic Power:        0.000000 mW
   Cache Write Dynamic Power:       0.000000 mW
   Cache Total Power:               0.000000 mW

   Accelerator Power:               2.490010 mW
   Accelerator Power (SPM):         46.921450 mW
   Accelerator Power (Cache):       2.490010 mW

   ========= Area Analysis =======================
   FU Area:                         170559.593750 um^2 (0.170560 mm^2)
   Register Area:                   967.909180 um^2 (0.000968 mm^2)
   SPM Area:                        2177.365505 um^2 (0.002177 mm^2)
   Cache Area:                      0.000000 um^2 (0.000000 mm^2)

   Accelerator Area:                171527.500000 um^2 (0.171527 mm^2)
   Accelerator Area (SPM):          173704.865505 um^2 (0.173705 mm^2)
   Accelerator Area (Cache):        171527.500000 um^2 (0.171527 mm^2)

   ========= SPM Resizing  =======================
   SPM Optimized Leakage Power:     0.003887 mW
   SPM Opt Area:                    172.850411 um^2

9481528125: global: Timer #0 started at tick 9481528125
9481766875: global: Timer #3 started at tick 9481766875
9481898750: global: Timer #3 stopped at tick 9481898750. Duration: 131875
9481946250: global: Timer #2 started at tick 9481946250
9482013125: global: Timer #2 stopped at tick 9482013125. Duration: 66875
9482253125: global: DAG ID = 0
9482266875: global: Node ID = 141
9482280000: global: Node deadline difference = -1033
9482292500: global: Predicted memory time / byte = 0.000182343 us/byte
9482305000: global: Predicted memory time = 23.9 us
9482317500: global: Predicted memory time / byte = 0.000182343 us/byte
9482330000: global: Predicted memory time = 23.9 us
9482342500: global: Predicted memory time / byte = 0 us/byte
9482355000: global: Predicted memory time = 0 us
9482367500: global: Predicted memory time / byte = 0 us/byte
9482380000: global: Predicted memory time = 0 us
9495715875: system.acctest.elem_matrix0_dma: SRC:0x0000000082a236c0, DST:0x0000000024010020, LEN:65536
9495927500: global: Timer #0 stopped at tick 9495927500. Duration: 14399375
9495941875: global: Number of accelerators running = 1
9507551875: system.acctest.elem_matrix0_dma: Transfer completed in 11.836 us
9507625625: global: Timer #0 started at tick 9507625625
9507665000: global: Timer #1 started at tick 9507665000
9507936875: global: Timer #1 stopped at tick 9507936875. Duration: 271875
9509543750: global: Timer #0 stopped at tick 9509543750. Duration: 1918125
9509558125: global: Number of accelerators running = 1
********************************************************************************
system.acctest.elem_matrix0.compute
   ========= Performance Analysis =============
   Setup Time:                      6.427860seconds
   Simulation Time:                 133.202871seconds
   System Clock:                    1.000000GHz
   Transistor Latency:              1ns
   Runtime:                         10932 cycles
   Runtime:                         10.932000 us
   Stalls:                          1 cycles
   Executed Nodes:                  10930 cycles

********************************************************************************
   ========= Performance Analysis =================
   Setup Time:                      6427859865.000000ns
   Simulation Time:                 133202870679.999985ns
   System Clock:                    1.000000GHz
   Transistor Latency:              0ns
   Runtime:                         10932 cycles
   Runtime:                         0.000001 seconds
   Stalls:                          1 cycles
       Load Only:                   0 cycles
       Store Only:                  1 cycles
       Compute Only:                0 cycles
       Compute & Store:             0 cycles
       Load & Store:                0 cycles
       Load & Compute:              0 cycles
       Load & Compute & Store:      0 cycles
   Executed Nodes:                  10930 cycles
       Load Only:                   0 cycles
       Store Only:                  4 cycles
       Compute Only:                1 cycles
       Compute & Store:             21 cycles
       Load & Store:                0 cycles
       Load & Compute:              6 cycles
       Load & Compute & Store:      10898 cycles

   ========= Runtime FU's ========= (Max | Avg) ===
   Counter FU's:                      32 | 0.046838
   Integer Add/Sub FU's:               0 | 0.000000
   Integer Mul/Div FU's:               0 | 0.000000
   Integer Shifter FU's:               0 | 0.000000
   Integer Bitwise FU's:               1 | 0.000091
   Floating Point Float Add/Sub:       0 | 0.000000
   Floating Point Double Add/Sub:      0 | 0.000000
   Floating Point Float Mul/Div:      34 | 0.044252
   Floating Point Double Mul/Div:      0 | 0.000000
   0 Cycle Compare FU's:             102 | 0.046945
   GEP Instruction FU's:              96 | 0.046835
   Type Conversion FU's:               7 | 0.006782

   ========= Static FU's ==========================
   Counter FU's:                    0
   Integer Add/Sub FU's:            0
   Integer Mul/Div FU's:            0
   Integer Shifter FU's:            0
   Integer Bitwise FU's:            0
   Floating Point Float Add/Sub:    0
   Floating Point Double Add/Sub:   0
   Floating Point Float Mul/Div:    0
   Floating Point Double Mul/Div:   0
   0 Cycle Compare FU's:            0
   GEP Instruction FU's:            0
   Type Conversion FU's:            0
   Other:                           0

   ========= Pipeline Register Usage =============
   Total Number of Registers:       5641
   Max Register Usage Per Cycle:    137
   Avg Register Usage Per Cycle:    12.130992
   Avg Register Size (Bytes):       5.980606

   ========= Memory Configuration =================
   Cache Bus Ports:                 0
   Shared Cache Size:               0kB
   Local Bus Ports:                 0
   Private SPM Size:                256kB
   Private Read Ports:              0
   Private Write Ports:             0
   Private Read Bus Width:          64
   Private Write Bus Width:         64
       Memory Reads:                0
       Memory Writes:               0
   ========= Power Analysis ======================
   FU Leakage Power:                0.045377 mW 
   FU Dynamic Power:                0.142576 mW 
   FU Total Power:                  0.187953 mW 

   Registers Leakage Power:          0.005281 mW 
   Registers Dynamic Power:          0.015326 mW 
       Register Reads (Bits):        132616
       Register Writes (Bits):       133658
   Registers Total Power:            0.020607 mW

   SPM Leakage Power:               0.104100 mW
   SPM Read Dynamic Power:          24.325035 mW
   SPM Write Dynamic Power:         20.157806 mW
   SPM Total Power:                 44.586941 mW

   Cache Leakage Power:             0.000000 mW
   Cache Read Dynamic Power:        0.000000 mW
   Cache Write Dynamic Power:       0.000000 mW
   Cache Total Power:               0.000000 mW

   Accelerator Power:               0.208559 mW
   Accelerator Power (SPM):         44.795500 mW
   Accelerator Power (Cache):       0.208559 mW

   ========= Area Analysis =======================
   FU Area:                         5472.068359 um^2 (0.005472 mm^2)
   Register Area:                   429.271088 um^2 (0.000429 mm^2)
   SPM Area:                        2177.365505 um^2 (0.002177 mm^2)
   Cache Area:                      0.000000 um^2 (0.000000 mm^2)

   Accelerator Area:                5901.339355 um^2 (0.005901 mm^2)
   Accelerator Area (SPM):          8078.704860 um^2 (0.008079 mm^2)
   Accelerator Area (Cache):        5901.339355 um^2 (0.005901 mm^2)

   ========= SPM Resizing  =======================
   SPM Optimized Leakage Power:     0.004248 mW
   SPM Opt Area:                    178.524902 um^2

9520339375: global: Timer #0 started at tick 9520339375
9533678750: system.acctest.elem_matrix0_dma: SRC:0x0000000024020020, DST:0x0000000082a336c0, LEN:65536
9534025000: global: Timer #0 stopped at tick 9534025000. Duration: 13685625
9534039375: global: Number of accelerators running = 1
9540076750: system.acctest.elem_matrix0_dma: Transfer completed in 6.398 us
9540150625: global: Timer #0 started at tick 9540150625
9540250625: global: Timer #1 started at tick 9540250625
9540400625: global: Timer #1 stopped at tick 9540400625. Duration: 150000
9540728750: global: DAG ID = 0
9540742500: global: Node ID = 143
9540773125: global: DAG execution time = 5966
9540791250: global: DAG deadline difference = -1034
9540810000: global: Node deadline difference = -1034
9540822500: global: Predicted memory time / byte = 0.000182343 us/byte
9540835000: global: Predicted memory time = 35.85 us
9540847500: global: Predicted memory time / byte = 0.000182343 us/byte
9540860000: global: Predicted memory time = 23.9 us
9540872500: global: Predicted memory time / byte = 0.000180435 us/byte
9540885000: global: Predicted memory time = 11 us
9540897500: global: Predicted memory time / byte = 9.82513e-05 us/byte
9540910000: global: Predicted memory time = 6 us
9541008750: global: Timer #0 stopped at tick 9541008750. Duration: 858125
9541023125: global: Number of accelerators running = 0
9541142500: global: Number of forwards = 119
9541278125: global: Number of colocations = 119
9541297500: global: Number of DAG deadlines met = 1
9541317500: global: Number of node deadlines met = 144
9541352500: global: Total predicted compute time = 1453 us
Exiting @ tick 9541516250 because m5_exit instruction encountered
