gem5 Simulator System.  http://gem5.org
gem5 is copyrighted software; use the --copyright option for details.

gem5 compiled Jun 12 2023 18:40:01
gem5 started Jul 13 2023 13:22:08
gem5 executing on node4x10a.cs.rochester.edu, pid 55557
command line: /u/sgupta45/gem5-SALAM/build/ARM/gem5_bus.opt --debug-flags=HWACC,CommInterface,LLVMInterface,StreamDma,NoncoherentDma,TickTimer,SchedulerStats --outdir=BM_ARM_OUT/comb_3/canny_0_deblur_1_gru_0_harris_1_lstm_1_GEDF_D configs/SALAM/scheduler.py --mem-size=4GB --mem-type=LPDDR5_6400_1x16_BG_BL32 --kernel=/u/sgupta45/gem5-SALAM/benchmarks/scheduler/sw/bin_comb_3/canny_0_deblur_1_gru_0_harris_1_lstm_1_GEDF_D.elf --vans-config-path=/u/sgupta45/VANS/config --disk-image=/u/sgupta45/gem5-SALAM/baremetal/common/fake.iso --machine-type=VExpress_GEM5_V1 --dtb-file=none --bare-metal --cpu-type=ex5_LITTLE --cpu-clock=1.6GHz --accpath=/u/sgupta45/gem5-SALAM/benchmarks --caches --cacheline_size=64 --l1d_size=32kB --l1d_assoc=4 --l1i_size=32kB --l1i_assoc=2

Global frequency set at 1000000000000 ticks per second
Cycle Counts Loaded!
Cycle Counts Loaded!
Cycle Counts Loaded!
Cycle Counts Loaded!
Cycle Counts Loaded!
Cycle Counts Loaded!
Cycle Counts Loaded!
Cycle Counts Loaded!
Cycle Counts Loaded!
Cycle Counts Loaded!
Cycle Counts Loaded!
**** REAL SIMULATION ****
3717370625: global: Timer #2 started at tick 3717370625
3717797500: global: Timer #2 stopped at tick 3717797500. Duration: 426875
3724225000: global: Timer #2 started at tick 3724225000
3724513750: global: Timer #2 stopped at tick 3724513750. Duration: 288750
3729869375: global: Timer #2 started at tick 3729869375
3729920000: global: Timer #2 stopped at tick 3729920000. Duration: 50625
3780185875: system.acctest.elem_matrix0_dma: SRC:0x0000000082351640, DST:0x0000000024000020, LEN:65536
3785519000: system.acctest.isp0_dma: SRC:0x0000000082058e40, DST:0x0000000027000020, LEN:16900
3785920625: global: Number of accelerators running = 2
3788839000: system.acctest.isp0_dma: Transfer completed in 3.32 us
3789622500: global: Timer #0 started at tick 3789622500
3791375000: global: Timer #0 stopped at tick 3791375000. Duration: 1752500
3791393750: global: Number of accelerators running = 2
3792701875: system.acctest.elem_matrix0_dma: Transfer completed in 12.516 us
3792839375: global: Timer #0 started at tick 3792839375
3806887375: system.acctest.elem_matrix0_dma: SRC:0x0000000082211480, DST:0x0000000024010020, LEN:65536
3807208125: global: Timer #0 stopped at tick 3807208125. Duration: 14368750
3807224375: global: Number of accelerators running = 2
3818883375: system.acctest.elem_matrix0_dma: Transfer completed in 11.996 us
3818959375: global: Timer #0 started at tick 3818959375
3820351875: global: Timer #0 stopped at tick 3820351875. Duration: 1392500
3820368125: global: Number of accelerators running = 2
********************************************************************************
system.acctest.isp0.compute
   ========= Performance Analysis =============
   Setup Time:                      0.152779seconds
   Simulation Time:                 708.869seconds
   System Clock:                    1GHz
   Transistor Latency:              1ns
   Runtime:                         34882 cycles
   Runtime:                         34.882 us
   Stalls:                          1 cycles
   Executed Nodes:                  34880 cycles

********************************************************************************
   ========= Performance Analysis =================
   Setup Time:                      1.52779e+08ns
   Simulation Time:                 7.08869e+11ns
   System Clock:                    1GHz
   Transistor Latency:              0ns
   Runtime:                         34882 cycles
   Runtime:                         3.4882e-06 seconds
   Stalls:                          1 cycles
       Load Only:                   0 cycles
       Store Only:                  1 cycles
       Compute Only:                0 cycles
       Compute & Store:             0 cycles
       Load & Store:                0 cycles
       Load & Compute:              0 cycles
       Load & Compute & Store:      0 cycles
   Executed Nodes:                  34880 cycles
       Load Only:                   0 cycles
       Store Only:                  1 cycles
       Compute Only:                3453 cycles
       Compute & Store:             19014 cycles
       Load & Store:                0 cycles
       Load & Compute:              2467 cycles
       Load & Compute & Store:      9945 cycles

   ========= Runtime FU's ========= (Max | Avg) ===
   Counter FU's:                      10 | 0.118075
   Integer Add/Sub FU's:              76 | 0.082082
   Integer Mul/Div FU's:              11 | 0.043888
   Integer Shifter FU's:              42 | 0.055974
   Integer Bitwise FU's:               4 | 0.059443
   Floating Point Float Add/Sub:      53 | 0.116839
   Floating Point Double Add/Sub:      0 | 0.000000
   Floating Point Float Mul/Div:      76 | 0.625626
   Floating Point Double Mul/Div:      0 | 0.000000
   0 Cycle Compare FU's:              85 | 0.664984
   GEP Instruction FU's:              33 | 0.117424
   Type Conversion FU's:             110 | 0.379700

   ========= Static FU's ==========================
   Counter FU's:                    0
   Integer Add/Sub FU's:            0
   Integer Mul/Div FU's:            0
   Integer Shifter FU's:            0
   Integer Bitwise FU's:            0
   Floating Point Float Add/Sub:    0
   Floating Point Double Add/Sub:   0
   Floating Point Float Mul/Div:    0
   Floating Point Double Mul/Div:   0
   0 Cycle Compare FU's:            0
   GEP Instruction FU's:            0
   Type Conversion FU's:            0
   Other:                           0

   ========= Pipeline Register Usage =============
   Total Number of Registers:       1620
   Max Register Usage Per Cycle:    151
   Avg Register Usage Per Cycle:    58.744711
   Avg Register Size (Bytes):       5.073357

   ========= Memory Configuration =================
   Cache Bus Ports:                 0
   Shared Cache Size:               0kB
   Local Bus Ports:                 0
   Private SPM Size:                112kB
   Private Read Ports:              0
   Private Write Ports:             0
   Private Read Bus Width:          64
   Private Write Bus Width:         64
       Memory Reads:                0
       Memory Writes:               0
   ========= Power Analysis ======================
   FU Leakage Power:                1.637787 mW 
   FU Dynamic Power:                9.655087 mW 
   FU Total Power:                  11.292874 mW 

   Registers Leakage Power:          0.021654 mW 
   Registers Dynamic Power:          3.085961 mW 
       Register Reads (Bits):        2049133
       Register Writes (Bits):       2049168
   Registers Total Power:            3.107615 mW

   SPM Leakage Power:               0.061081 mW
   SPM Read Dynamic Power:          11.103730 mW
   SPM Write Dynamic Power:         7.385230 mW
   SPM Total Power:                 18.550041 mW

   Cache Leakage Power:             0.000000 mW
   Cache Read Dynamic Power:        0.000000 mW
   Cache Write Dynamic Power:       0.000000 mW
   Cache Total Power:               0.000000 mW

   Accelerator Power:               14.400490 mW
   Accelerator Power (SPM):         32.950531 mW
   Accelerator Power (Cache):       14.400490 mW

   ========= Area Analysis =======================
   FU Area:                         176023.796875 um^2 (0.176024 mm^2)
   Register Area:                   1760.064941 um^2 (0.001760 mm^2)
   SPM Area:                        2165.394891 um^2 (0.002165 mm^2)
   Cache Area:                      0.000000 um^2 (0.000000 mm^2)

   Accelerator Area:                177783.859375 um^2 (0.177784 mm^2)
   Accelerator Area (SPM):          179949.254266 um^2 (0.179949 mm^2)
   Accelerator Area (Cache):        177783.859375 um^2 (0.177784 mm^2)

   ========= SPM Resizing  =======================
   SPM Optimized Leakage Power:     0.005964 mW
   SPM Opt Area:                    422.108128 um^2

3825700625: global: Timer #0 started at tick 3825700625
3826147500: global: Timer #2 started at tick 3826147500
3826404375: global: Timer #2 stopped at tick 3826404375. Duration: 256875
3827173125: global: DAG ID = 0
3827192500: global: Node ID = 0
3827210625: global: Node deadline difference = -232
3827272500: global: Predicted memory time / byte = 0 us/byte
3827290625: global: Predicted memory time = 0 us
3827308750: global: Predicted memory time / byte = 0 us/byte
3827326875: global: Predicted memory time = 0 us
3827345000: global: Predicted memory time / byte = 0 us/byte
3827406250: global: Predicted memory time = 0 us
3827424375: global: Predicted memory time / byte = 0 us/byte
3827442500: global: Predicted memory time = 0 us
3827460625: global: Predicted memory access size = 0
3827478750: global: Predicted memory access size = 16900
3827541250: global: Predicted memory access size = 0
3827560000: global: Predicted memory access size = 0
3828925875: system.acctest.grayscale0_dma: SRC:0x0000000027004224, DST:0x0000000025000020, LEN:49152
********************************************************************************
system.acctest.elem_matrix0.compute
   ========= Performance Analysis =============
   Setup Time:                      5.253457seconds
   Simulation Time:                 366.270540seconds
   System Clock:                    1.000000GHz
   Transistor Latency:              1ns
   Runtime:                         10932 cycles
   Runtime:                         10.932000 us
   Stalls:                          0 cycles
   Executed Nodes:                  10931 cycles

********************************************************************************
   ========= Performance Analysis =================
   Setup Time:                      5253457347.000000ns
   Simulation Time:                 366270539857.000000ns
   System Clock:                    1.000000GHz
   Transistor Latency:              0ns
   Runtime:                         10932 cycles
   Runtime:                         0.000001 seconds
   Stalls:                          0 cycles
       Load Only:                   0 cycles
       Store Only:                  0 cycles
       Compute Only:                0 cycles
       Compute & Store:             0 cycles
       Load & Store:                0 cycles
       Load & Compute:              0 cycles
       Load & Compute & Store:      0 cycles
   Executed Nodes:                  10931 cycles
       Load Only:                   0 cycles
       Store Only:                  5 cycles
       Compute Only:                1 cycles
       Compute & Store:             21 cycles
       Load & Store:                0 cycles
       Load & Compute:              7 cycles
       Load & Compute & Store:      10897 cycles

   ========= Runtime FU's ========= (Max | Avg) ===
   Counter FU's:                      32 | 0.046838
   Integer Add/Sub FU's:               0 | 0.000000
   Integer Mul/Div FU's:               0 | 0.000000
   Integer Shifter FU's:               0 | 0.000000
   Integer Bitwise FU's:               1 | 0.000091
   Floating Point Float Add/Sub:      34 | 0.044252
   Floating Point Double Add/Sub:      0 | 0.000000
   Floating Point Float Mul/Div:       0 | 0.000000
   Floating Point Double Mul/Div:      0 | 0.000000
   0 Cycle Compare FU's:             102 | 0.046974
   GEP Instruction FU's:              96 | 0.046835
   Type Conversion FU's:               7 | 0.006782

   ========= Static FU's ==========================
   Counter FU's:                    0
   Integer Add/Sub FU's:            0
   Integer Mul/Div FU's:            0
   Integer Shifter FU's:            0
   Integer Bitwise FU's:            0
   Floating Point Float Add/Sub:    0
   Floating Point Double Add/Sub:   0
   Floating Point Float Mul/Div:    0
   Floating Point Double Mul/Div:   0
   0 Cycle Compare FU's:            0
   GEP Instruction FU's:            0
   Type Conversion FU's:            0
   Other:                           0

   ========= Pipeline Register Usage =============
   Total Number of Registers:       5641
   Max Register Usage Per Cycle:    138
   Avg Register Usage Per Cycle:    12.130992
   Avg Register Size (Bytes):       5.980606

   ========= Memory Configuration =================
   Cache Bus Ports:                 0
   Shared Cache Size:               0kB
   Local Bus Ports:                 0
   Private SPM Size:                256kB
   Private Read Ports:              0
   Private Write Ports:             0
   Private Read Bus Width:          64
   Private Write Bus Width:         64
       Memory Reads:                0
       Memory Writes:               0
   ========= Power Analysis ======================
   FU Leakage Power:                0.519269 mW 
   FU Dynamic Power:                0.154621 mW 
   FU Total Power:                  0.673890 mW 

   Registers Leakage Power:          0.005281 mW 
   Registers Dynamic Power:          0.015326 mW 
       Register Reads (Bits):        132616
       Register Writes (Bits):       133658
   Registers Total Power:            0.020607 mW

   SPM Leakage Power:               0.104100 mW
   SPM Read Dynamic Power:          1.997266 mW
   SPM Write Dynamic Power:         0.953321 mW
   SPM Total Power:                 3.054688 mW

   Cache Leakage Power:             0.000000 mW
   Cache Read Dynamic Power:        0.000000 mW
   Cache Write Dynamic Power:       0.000000 mW
   Cache Total Power:               0.000000 mW

   Accelerator Power:               0.694497 mW
   Accelerator Power (SPM):         3.749184 mW
   Accelerator Power (Cache):       0.694497 mW

   ========= Area Analysis =======================
   FU Area:                         70212.562500 um^2 (0.070213 mm^2)
   Register Area:                   429.271088 um^2 (0.000429 mm^2)
   SPM Area:                        2177.365505 um^2 (0.002177 mm^2)
   Cache Area:                      0.000000 um^2 (0.000000 mm^2)

   Accelerator Area:                70641.835938 um^2 (0.070642 mm^2)
   Accelerator Area (SPM):          72819.201442 um^2 (0.072819 mm^2)
   Accelerator Area (Cache):        70641.835938 um^2 (0.070642 mm^2)

   ========= SPM Resizing  =======================
   SPM Optimized Leakage Power:     0.004248 mW
   SPM Opt Area:                    178.524902 um^2

3833665000: system.acctest.isp0_dma: SRC:0x000000008207b680, DST:0x0000000027000020, LEN:16900
3833932500: global: Timer #0 stopped at tick 3833932500. Duration: 8231875
3833948750: global: Number of accelerators running = 3
3834065625: global: Timer #0 started at tick 3834065625
3834422500: global: Timer #2 started at tick 3834422500
3834469375: global: Timer #2 stopped at tick 3834469375. Duration: 46875
3834680625: global: Timer #2 started at tick 3834680625
3835128125: global: Timer #2 stopped at tick 3835128125. Duration: 447500
3835403125: global: Timer #2 started at tick 3835403125
3835445625: global: Timer #2 stopped at tick 3835445625. Duration: 42500
3835813125: global: Timer #2 started at tick 3835813125
3835855625: global: Timer #2 stopped at tick 3835855625. Duration: 42500
3836977000: system.acctest.isp0_dma: Transfer completed in 3.312 us
3838486875: system.acctest.grayscale0_dma: Transfer completed in 9.561 us
3849410875: system.acctest.elem_matrix0_dma: SRC:0x0000000024020020, DST:0x0000000082221480, LEN:65536
3849863750: global: Timer #0 stopped at tick 3849863750. Duration: 15798125
3849880000: global: Number of accelerators running = 3
3850002500: global: Timer #0 started at tick 3850002500
3850861250: global: Timer #0 stopped at tick 3850861250. Duration: 858750
3850877500: global: Number of accelerators running = 3
3851007500: global: Timer #0 started at tick 3851007500
3852332500: global: Timer #0 stopped at tick 3852332500. Duration: 1325000
3852348750: global: Number of accelerators running = 3
3855776875: system.acctest.elem_matrix0_dma: Transfer completed in 6.366 us
3855863125: global: Timer #0 started at tick 3855863125
3856354375: global: DAG ID = 2
3856418125: global: Node ID = 0
3856492500: global: Node deadline difference = -3595
3856510625: global: Predicted memory time / byte = 0 us/byte
3856528750: global: Predicted memory time = 0 us
3856548750: global: Predicted memory time / byte = 0 us/byte
3856566875: global: Predicted memory time = 0 us
3856585000: global: Predicted memory time / byte = 0 us/byte
3856603125: global: Predicted memory time = 0 us
3856621250: global: Predicted memory time / byte = 0 us/byte
3856639375: global: Predicted memory time = 0 us
3856659375: global: Predicted memory access size = 0
3856677500: global: Predicted memory access size = 131072
3856695625: global: Predicted memory access size = 0
3856713750: global: Predicted memory access size = 65536
********************************************************************************
system.acctest.grayscale0.compute
   ========= Performance Analysis =============
   Setup Time:                      0.039267seconds
   Simulation Time:                 501.408590seconds
   System Clock:                    1.000000GHz
   Transistor Latency:              1ns
   Runtime:                         10263 cycles
   Runtime:                         10.263000 us
   Stalls:                          1 cycles
   Executed Nodes:                  10261 cycles

********************************************************************************
   ========= Performance Analysis =================
   Setup Time:                      39267113.000000ns
   Simulation Time:                 501408589539.000000ns
   System Clock:                    1.000000GHz
   Transistor Latency:              0ns
   Runtime:                         10263 cycles
   Runtime:                         0.000001 seconds
   Stalls:                          1 cycles
       Load Only:                   0 cycles
       Store Only:                  1 cycles
       Compute Only:                0 cycles
       Compute & Store:             0 cycles
       Load & Store:                0 cycles
       Load & Compute:              0 cycles
       Load & Compute & Store:      0 cycles
   Executed Nodes:                  10261 cycles
       Load Only:                   0 cycles
       Store Only:                  1 cycles
       Compute Only:                88 cycles
       Compute & Store:             344 cycles
       Load & Store:                0 cycles
       Load & Compute:              1981 cycles
       Load & Compute & Store:      7847 cycles

   ========= Runtime FU's ========= (Max | Avg) ===
   Counter FU's:                      24 | 0.199556
   Integer Add/Sub FU's:               0 | 0.000000
   Integer Mul/Div FU's:               8 | 0.199552
   Integer Shifter FU's:               0 | 0.000000
   Integer Bitwise FU's:               1 | 0.000097
   Floating Point Float Add/Sub:      49 | 0.114264
   Floating Point Double Add/Sub:      0 | 0.000000
   Floating Point Float Mul/Div:      42 | 0.114129
   Floating Point Double Mul/Div:      0 | 0.000000
   0 Cycle Compare FU's:               9 | 0.066626
   GEP Instruction FU's:              36 | 0.177452
   Type Conversion FU's:              76 | 0.401969

   ========= Static FU's ==========================
   Counter FU's:                    0
   Integer Add/Sub FU's:            0
   Integer Mul/Div FU's:            0
   Integer Shifter FU's:            0
   Integer Bitwise FU's:            0
   Floating Point Float Add/Sub:    0
   Floating Point Double Add/Sub:   0
   Floating Point Float Mul/Div:    0
   Floating Point Double Mul/Div:   0
   0 Cycle Compare FU's:            0
   GEP Instruction FU's:            0
   Type Conversion FU's:            0
   Other:                           0

   ========= Pipeline Register Usage =============
   Total Number of Registers:       235
   Max Register Usage Per Cycle:    90
   Avg Register Usage Per Cycle:    33.924291
   Avg Register Size (Bytes):       5.841147

   ========= Memory Configuration =================
   Cache Bus Ports:                 0
   Shared Cache Size:               0kB
   Local Bus Ports:                 0
   Private SPM Size:                176kB
   Private Read Ports:              0
   Private Write Ports:             0
   Private Read Bus Width:          64
   Private Write Bus Width:         64
       Memory Reads:                0
       Memory Writes:               0
   ========= Power Analysis ======================
   FU Leakage Power:                1.178269 mW 
   FU Dynamic Power:                0.617392 mW 
   FU Total Power:                  1.795662 mW 

   Registers Leakage Power:          0.014185 mW 
   Registers Dynamic Power:          0.101057 mW 
       Register Reads (Bits):        348165
       Register Writes (Bits):       348168
   Registers Total Power:            0.115242 mW

   SPM Leakage Power:               0.089881 mW
   SPM Read Dynamic Power:          6.997296 mW
   SPM Write Dynamic Power:         2.062375 mW
   SPM Total Power:                 9.149552 mW

   Cache Leakage Power:             0.000000 mW
   Cache Read Dynamic Power:        0.000000 mW
   Cache Write Dynamic Power:       0.000000 mW
   Cache Total Power:               0.000000 mW

   Accelerator Power:               1.910904 mW
   Accelerator Power (SPM):         11.060456 mW
   Accelerator Power (Cache):       1.910904 mW

   ========= Area Analysis =======================
   FU Area:                         143348.187500 um^2 (0.143348 mm^2)
   Register Area:                   1152.968140 um^2 (0.001153 mm^2)
   SPM Area:                        3573.642862 um^2 (0.003574 mm^2)
   Cache Area:                      0.000000 um^2 (0.000000 mm^2)

   Accelerator Area:                144501.156250 um^2 (0.144501 mm^2)
   Accelerator Area (SPM):          148074.799112 um^2 (0.148075 mm^2)
   Accelerator Area (Cache):        144501.156250 um^2 (0.144501 mm^2)

   ========= SPM Resizing  =======================
   SPM Optimized Leakage Power:     0.003633 mW
   SPM Opt Area:                    364.024374 um^2

3870392375: system.acctest.elem_matrix0_dma: SRC:0x0000000082191300, DST:0x0000000024000020, LEN:65536
3870604375: global: Timer #0 stopped at tick 3870604375. Duration: 14741250
3870620625: global: Number of accelerators running = 3
3870738125: global: Timer #0 started at tick 3870738125
3871001875: global: Timer #2 started at tick 3871001875
3871041250: global: Timer #2 stopped at tick 3871041250. Duration: 39375
3882985375: system.acctest.elem_matrix0_dma: Transfer completed in 12.593 us
********************************************************************************
system.acctest.isp0.compute
   ========= Performance Analysis =============
   Setup Time:                      0.798594seconds
   Simulation Time:                 1158.006763seconds
   System Clock:                    1.000000GHz
   Transistor Latency:              1ns
   Runtime:                         34882 cycles
   Runtime:                         34.882000 us
   Stalls:                          1 cycles
   Executed Nodes:                  34880 cycles

********************************************************************************
   ========= Performance Analysis =================
   Setup Time:                      798593823.000000ns
   Simulation Time:                 1158006762971.000000ns
   System Clock:                    1.000000GHz
   Transistor Latency:              0ns
   Runtime:                         34882 cycles
   Runtime:                         0.000003 seconds
   Stalls:                          1 cycles
       Load Only:                   0 cycles
       Store Only:                  1 cycles
       Compute Only:                0 cycles
       Compute & Store:             0 cycles
       Load & Store:                0 cycles
       Load & Compute:              0 cycles
       Load & Compute & Store:      0 cycles
   Executed Nodes:                  34880 cycles
       Load Only:                   0 cycles
       Store Only:                  1 cycles
       Compute Only:                3453 cycles
       Compute & Store:             19014 cycles
       Load & Store:                0 cycles
       Load & Compute:              2467 cycles
       Load & Compute & Store:      9945 cycles

   ========= Runtime FU's ========= (Max | Avg) ===
   Counter FU's:                      10 | 0.118075
   Integer Add/Sub FU's:              76 | 0.082082
   Integer Mul/Div FU's:              11 | 0.043888
   Integer Shifter FU's:              42 | 0.055974
   Integer Bitwise FU's:               4 | 0.059443
   Floating Point Float Add/Sub:      53 | 0.116839
   Floating Point Double Add/Sub:      0 | 0.000000
   Floating Point Float Mul/Div:      76 | 0.625626
   Floating Point Double Mul/Div:      0 | 0.000000
   0 Cycle Compare FU's:              85 | 0.664984
   GEP Instruction FU's:              33 | 0.117424
   Type Conversion FU's:             110 | 0.379700

   ========= Static FU's ==========================
   Counter FU's:                    0
   Integer Add/Sub FU's:            0
   Integer Mul/Div FU's:            0
   Integer Shifter FU's:            0
   Integer Bitwise FU's:            0
   Floating Point Float Add/Sub:    0
   Floating Point Double Add/Sub:   0
   Floating Point Float Mul/Div:    0
   Floating Point Double Mul/Div:   0
   0 Cycle Compare FU's:            0
   GEP Instruction FU's:            0
   Type Conversion FU's:            0
   Other:                           0

   ========= Pipeline Register Usage =============
   Total Number of Registers:       1620
   Max Register Usage Per Cycle:    151
   Avg Register Usage Per Cycle:    58.744711
   Avg Register Size (Bytes):       5.073357

   ========= Memory Configuration =================
   Cache Bus Ports:                 0
   Shared Cache Size:               0kB
   Local Bus Ports:                 0
   Private SPM Size:                112kB
   Private Read Ports:              0
   Private Write Ports:             0
   Private Read Bus Width:          64
   Private Write Bus Width:         64
       Memory Reads:                0
       Memory Writes:               0
   ========= Power Analysis ======================
   FU Leakage Power:                1.637787 mW 
   FU Dynamic Power:                9.655087 mW 
   FU Total Power:                  11.292874 mW 

   Registers Leakage Power:          0.021654 mW 
   Registers Dynamic Power:          3.085961 mW 
       Register Reads (Bits):        2049133
       Register Writes (Bits):       2049168
   Registers Total Power:            3.107615 mW

   SPM Leakage Power:               0.061081 mW
   SPM Read Dynamic Power:          15.102444 mW
   SPM Write Dynamic Power:         10.618341 mW
   SPM Total Power:                 25.781867 mW

   Cache Leakage Power:             0.000000 mW
   Cache Read Dynamic Power:        0.000000 mW
   Cache Write Dynamic Power:       0.000000 mW
   Cache Total Power:               0.000000 mW

   Accelerator Power:               14.400490 mW
   Accelerator Power (SPM):         40.182357 mW
   Accelerator Power (Cache):       14.400490 mW

   ========= Area Analysis =======================
   FU Area:                         176023.796875 um^2 (0.176024 mm^2)
   Register Area:                   1760.064941 um^2 (0.001760 mm^2)
   SPM Area:                        2165.394891 um^2 (0.002165 mm^2)
   Cache Area:                      0.000000 um^2 (0.000000 mm^2)

   Accelerator Area:                177783.859375 um^2 (0.177784 mm^2)
   Accelerator Area (SPM):          179949.254266 um^2 (0.179949 mm^2)
   Accelerator Area (Cache):        177783.859375 um^2 (0.177784 mm^2)

   ========= SPM Resizing  =======================
   SPM Optimized Leakage Power:     0.005964 mW
   SPM Opt Area:                    422.108128 um^2

3885574500: system.acctest.grayscale0_dma: SRC:0x000000002500c020, DST:0x0000000082069200, LEN:65536
3887608000: system.acctest.convolution0_dma: SRC:0x000000002500c020, DST:0x0000000022000020, LEN:65536
3888062500: global: Timer #0 stopped at tick 3888062500. Duration: 17324375
3888078750: global: Number of accelerators running = 4
3888195000: global: Timer #0 started at tick 3888195000
3889866875: global: Timer #0 stopped at tick 3889866875. Duration: 1671875
3889883125: global: Number of accelerators running = 4
3890001875: global: Timer #0 started at tick 3890001875
3890686875: global: Timer #2 started at tick 3890686875
3890730625: global: Timer #2 stopped at tick 3890730625. Duration: 43750
3896750500: system.acctest.grayscale0_dma: Transfer completed in 11.176 us
********************************************************************************
system.acctest.elem_matrix0.compute
   ========= Performance Analysis =============
   Setup Time:                      11.413664seconds
   Simulation Time:                 207.951135seconds
   System Clock:                    1.000000GHz
   Transistor Latency:              1ns
   Runtime:                         10932 cycles
   Runtime:                         10.932000 us
   Stalls:                          1 cycles
   Executed Nodes:                  10930 cycles

********************************************************************************
   ========= Performance Analysis =================
   Setup Time:                      11413664387.000000ns
   Simulation Time:                 207951134659.000000ns
   System Clock:                    1.000000GHz
   Transistor Latency:              0ns
   Runtime:                         10932 cycles
   Runtime:                         0.000001 seconds
   Stalls:                          1 cycles
       Load Only:                   0 cycles
       Store Only:                  1 cycles
       Compute Only:                0 cycles
       Compute & Store:             0 cycles
       Load & Store:                0 cycles
       Load & Compute:              0 cycles
       Load & Compute & Store:      0 cycles
   Executed Nodes:                  10930 cycles
       Load Only:                   0 cycles
       Store Only:                  4 cycles
       Compute Only:                1 cycles
       Compute & Store:             21 cycles
       Load & Store:                0 cycles
       Load & Compute:              6 cycles
       Load & Compute & Store:      10898 cycles

   ========= Runtime FU's ========= (Max | Avg) ===
   Counter FU's:                      32 | 0.046838
   Integer Add/Sub FU's:               0 | 0.000000
   Integer Mul/Div FU's:               0 | 0.000000
   Integer Shifter FU's:               0 | 0.000000
   Integer Bitwise FU's:               1 | 0.000091
   Floating Point Float Add/Sub:       0 | 0.000000
   Floating Point Double Add/Sub:      0 | 0.000000
   Floating Point Float Mul/Div:      34 | 0.044252
   Floating Point Double Mul/Div:      0 | 0.000000
   0 Cycle Compare FU's:             102 | 0.046945
   GEP Instruction FU's:              96 | 0.046835
   Type Conversion FU's:               7 | 0.006782

   ========= Static FU's ==========================
   Counter FU's:                    0
   Integer Add/Sub FU's:            0
   Integer Mul/Div FU's:            0
   Integer Shifter FU's:            0
   Integer Bitwise FU's:            0
   Floating Point Float Add/Sub:    0
   Floating Point Double Add/Sub:   0
   Floating Point Float Mul/Div:    0
   Floating Point Double Mul/Div:   0
   0 Cycle Compare FU's:            0
   GEP Instruction FU's:            0
   Type Conversion FU's:            0
   Other:                           0

   ========= Pipeline Register Usage =============
   Total Number of Registers:       5641
   Max Register Usage Per Cycle:    137
   Avg Register Usage Per Cycle:    12.130992
   Avg Register Size (Bytes):       5.980606

   ========= Memory Configuration =================
   Cache Bus Ports:                 0
   Shared Cache Size:               0kB
   Local Bus Ports:                 0
   Private SPM Size:                256kB
   Private Read Ports:              0
   Private Write Ports:             0
   Private Read Bus Width:          64
   Private Write Bus Width:         64
       Memory Reads:                0
       Memory Writes:               0
   ========= Power Analysis ======================
   FU Leakage Power:                0.045377 mW 
   FU Dynamic Power:                0.142576 mW 
   FU Total Power:                  0.187953 mW 

   Registers Leakage Power:          0.005281 mW 
   Registers Dynamic Power:          0.015326 mW 
       Register Reads (Bits):        132616
       Register Writes (Bits):       133658
   Registers Total Power:            0.020607 mW

   SPM Leakage Power:               0.104100 mW
   SPM Read Dynamic Power:          2.785289 mW
   SPM Write Dynamic Power:         2.044305 mW
   SPM Total Power:                 4.933694 mW

   Cache Leakage Power:             0.000000 mW
   Cache Read Dynamic Power:        0.000000 mW
   Cache Write Dynamic Power:       0.000000 mW
   Cache Total Power:               0.000000 mW

   Accelerator Power:               0.208559 mW
   Accelerator Power (SPM):         5.142254 mW
   Accelerator Power (Cache):       0.208559 mW

   ========= Area Analysis =======================
   FU Area:                         5472.068359 um^2 (0.005472 mm^2)
   Register Area:                   429.271088 um^2 (0.000429 mm^2)
   SPM Area:                        2177.365505 um^2 (0.002177 mm^2)
   Cache Area:                      0.000000 um^2 (0.000000 mm^2)

   Accelerator Area:                5901.339355 um^2 (0.005901 mm^2)
   Accelerator Area (SPM):          8078.704860 um^2 (0.008079 mm^2)
   Accelerator Area (Cache):        5901.339355 um^2 (0.005901 mm^2)

   ========= SPM Resizing  =======================
   SPM Optimized Leakage Power:     0.004248 mW
   SPM Opt Area:                    178.524902 um^2

3900821000: system.acctest.convolution0_dma: Transfer completed in 13.213 us
3901366625: system.acctest.isp0_dma: SRC:0x0000000027010224, DST:0x000000008207f8c0, LEN:49152
3901761875: global: Timer #0 stopped at tick 3901761875. Duration: 11760000
3901778125: global: Number of accelerators running = 4
3901896875: global: Timer #0 started at tick 3901896875
3903091875: global: DAG ID = 0
3903105625: global: Node ID = 1
3903130000: global: Node deadline difference = -193
3903142500: global: Predicted memory time / byte = 0 us/byte
3903155000: global: Predicted memory time = 0 us
3903167500: global: Predicted memory time / byte = 0 us/byte
3903180000: global: Predicted memory time = 0 us
3903192500: global: Predicted memory time / byte = 0 us/byte
3903205000: global: Predicted memory time = 0 us
3903217500: global: Predicted memory time / byte = 0 us/byte
3903230000: global: Predicted memory time = 0 us
3903242500: global: Predicted memory access size = 0
3903255000: global: Predicted memory access size = 49152
3903267500: global: Predicted memory access size = 0
3903280000: global: Predicted memory access size = 65536
3903451250: global: Timer #0 stopped at tick 3903451250. Duration: 1554375
3903467500: global: Number of accelerators running = 3
3903585000: global: Timer #0 started at tick 3903585000
3904016250: global: Timer #2 started at tick 3904016250
3904175625: global: Timer #2 stopped at tick 3904175625. Duration: 159375
3906837625: system.acctest.isp0_dma: Transfer completed in 5.471 us
3917717375: system.acctest.elem_matrix0_dma: SRC:0x0000000024010020, DST:0x0000000082231480, LEN:65536
3918124375: global: Timer #0 stopped at tick 3918124375. Duration: 14539375
3918140625: global: Number of accelerators running = 3
3918268750: global: Timer #0 started at tick 3918268750
3919566000: system.acctest.convolution0_dma: SRC:0x0000000082018780, DST:0x0000000022030020, LEN:100
3919735000: system.acctest.convolution0_dma: Transfer completed in 0.169 us
3919847500: global: Timer #0 stopped at tick 3919847500. Duration: 1578750
3919863750: global: Number of accelerators running = 3
3919986875: global: Timer #0 started at tick 3919986875
3920179375: global: DAG ID = 1
3920193125: global: Node ID = 0
3920211250: global: Node deadline difference = -13870
3920223750: global: Predicted memory time / byte = 0 us/byte
3920236250: global: Predicted memory time = 0 us
3920248750: global: Predicted memory time / byte = 0 us/byte
3920261250: global: Predicted memory time = 0 us
3920273750: global: Predicted memory time / byte = 0 us/byte
3920286250: global: Predicted memory time = 0 us
3920298750: global: Predicted memory time / byte = 0 us/byte
3920311250: global: Predicted memory time = 0 us
3920323750: global: Predicted memory access size = 0
3920336250: global: Predicted memory access size = 16900
3920348750: global: Predicted memory access size = 0
3920361250: global: Predicted memory access size = 49152
3924320375: system.acctest.elem_matrix0_dma: Transfer completed in 6.603 us
3930828750: system.acctest.grayscale0_dma: SRC:0x000000008207f8c0, DST:0x0000000025000020, LEN:49152
3931028125: global: Timer #0 stopped at tick 3931028125. Duration: 11041250
3931044375: global: Number of accelerators running = 3
3931161875: global: Timer #0 started at tick 3931161875
3932523750: global: Timer #0 stopped at tick 3932523750. Duration: 1361875
3932540000: global: Number of accelerators running = 3
3932658750: global: Timer #0 started at tick 3932658750
3932844375: global: DAG ID = 2
3932858125: global: Node ID = 1
3932882500: global: Node deadline difference = -3576
3932895000: global: Predicted memory time / byte = 0 us/byte
3932907500: global: Predicted memory time = 0 us
3932920000: global: Predicted memory time / byte = 0 us/byte
3932932500: global: Predicted memory time = 0 us
3932945000: global: Predicted memory time / byte = 0 us/byte
3932957500: global: Predicted memory time = 0 us
3932970000: global: Predicted memory time / byte = 0 us/byte
3932982500: global: Predicted memory time = 0 us
3932995000: global: Predicted memory access size = 0
3933007500: global: Predicted memory access size = 65536
3933020000: global: Predicted memory access size = 0
3933032500: global: Predicted memory access size = 65536
3939784750: system.acctest.grayscale0_dma: Transfer completed in 8.956 us
3946544500: system.acctest.elem_matrix0_dma: SRC:0x0000000082221480, DST:0x0000000024000020, LEN:65536
3946748750: global: Timer #0 stopped at tick 3946748750. Duration: 14090000
3946765000: global: Number of accelerators running = 3
3946881875: global: Timer #0 started at tick 3946881875
3947568750: global: Timer #0 stopped at tick 3947568750. Duration: 686875
3947585000: global: Number of accelerators running = 3
********************************************************************************
system.acctest.grayscale0.compute
   ========= Performance Analysis =============
   Setup Time:                      0.025049seconds
   Simulation Time:                 217.391965seconds
   System Clock:                    1.000000GHz
   Transistor Latency:              1ns
   Runtime:                         10263 cycles
   Runtime:                         10.263000 us
   Stalls:                          1 cycles
   Executed Nodes:                  10261 cycles

********************************************************************************
   ========= Performance Analysis =================
   Setup Time:                      25048543.000000ns
   Simulation Time:                 217391964879.000000ns
   System Clock:                    1.000000GHz
   Transistor Latency:              0ns
   Runtime:                         10263 cycles
   Runtime:                         0.000001 seconds
   Stalls:                          1 cycles
       Load Only:                   0 cycles
       Store Only:                  1 cycles
       Compute Only:                0 cycles
       Compute & Store:             0 cycles
       Load & Store:                0 cycles
       Load & Compute:              0 cycles
       Load & Compute & Store:      0 cycles
   Executed Nodes:                  10261 cycles
       Load Only:                   0 cycles
       Store Only:                  1 cycles
       Compute Only:                88 cycles
       Compute & Store:             344 cycles
       Load & Store:                0 cycles
       Load & Compute:              1981 cycles
       Load & Compute & Store:      7847 cycles

   ========= Runtime FU's ========= (Max | Avg) ===
   Counter FU's:                      24 | 0.199556
   Integer Add/Sub FU's:               0 | 0.000000
   Integer Mul/Div FU's:               8 | 0.199552
   Integer Shifter FU's:               0 | 0.000000
   Integer Bitwise FU's:               1 | 0.000097
   Floating Point Float Add/Sub:      49 | 0.114264
   Floating Point Double Add/Sub:      0 | 0.000000
   Floating Point Float Mul/Div:      42 | 0.114129
   Floating Point Double Mul/Div:      0 | 0.000000
   0 Cycle Compare FU's:               9 | 0.066626
   GEP Instruction FU's:              36 | 0.177452
   Type Conversion FU's:              76 | 0.401969

   ========= Static FU's ==========================
   Counter FU's:                    0
   Integer Add/Sub FU's:            0
   Integer Mul/Div FU's:            0
   Integer Shifter FU's:            0
   Integer Bitwise FU's:            0
   Floating Point Float Add/Sub:    0
   Floating Point Double Add/Sub:   0
   Floating Point Float Mul/Div:    0
   Floating Point Double Mul/Div:   0
   0 Cycle Compare FU's:            0
   GEP Instruction FU's:            0
   Type Conversion FU's:            0
   Other:                           0

   ========= Pipeline Register Usage =============
   Total Number of Registers:       235
   Max Register Usage Per Cycle:    90
   Avg Register Usage Per Cycle:    33.924291
   Avg Register Size (Bytes):       5.841147

   ========= Memory Configuration =================
   Cache Bus Ports:                 0
   Shared Cache Size:               0kB
   Local Bus Ports:                 0
   Private SPM Size:                176kB
   Private Read Ports:              0
   Private Write Ports:             0
   Private Read Bus Width:          64
   Private Write Bus Width:         64
       Memory Reads:                0
       Memory Writes:               0
   ========= Power Analysis ======================
   FU Leakage Power:                1.178269 mW 
   FU Dynamic Power:                0.617392 mW 
   FU Total Power:                  1.795662 mW 

   Registers Leakage Power:          0.014185 mW 
   Registers Dynamic Power:          0.101057 mW 
       Register Reads (Bits):        348165
       Register Writes (Bits):       348168
   Registers Total Power:            0.115242 mW

   SPM Leakage Power:               0.089881 mW
   SPM Read Dynamic Power:          10.232207 mW
   SPM Write Dynamic Power:         5.980668 mW
   SPM Total Power:                 16.302756 mW

   Cache Leakage Power:             0.000000 mW
   Cache Read Dynamic Power:        0.000000 mW
   Cache Write Dynamic Power:       0.000000 mW
   Cache Total Power:               0.000000 mW

   Accelerator Power:               1.910904 mW
   Accelerator Power (SPM):         18.213660 mW
   Accelerator Power (Cache):       1.910904 mW

   ========= Area Analysis =======================
   FU Area:                         143348.187500 um^2 (0.143348 mm^2)
   Register Area:                   1152.968140 um^2 (0.001153 mm^2)
   SPM Area:                        3573.642862 um^2 (0.003574 mm^2)
   Cache Area:                      0.000000 um^2 (0.000000 mm^2)

   Accelerator Area:                144501.156250 um^2 (0.144501 mm^2)
   Accelerator Area (SPM):          148074.799112 um^2 (0.148075 mm^2)
   Accelerator Area (Cache):        144501.156250 um^2 (0.144501 mm^2)

   ========= SPM Resizing  =======================
   SPM Optimized Leakage Power:     0.003633 mW
   SPM Opt Area:                    364.024374 um^2

3957700000: global: Timer #0 started at tick 3957700000
3958096250: global: Timer #2 started at tick 3958096250
3958131250: global: Timer #2 stopped at tick 3958131250. Duration: 35000
3958412500: global: Timer #2 started at tick 3958412500
3958471250: global: Timer #2 stopped at tick 3958471250. Duration: 58750
3958541500: system.acctest.elem_matrix0_dma: Transfer completed in 11.997 us
3971655875: system.acctest.grayscale0_dma: SRC:0x000000002500c020, DST:0x000000008208ba40, LEN:65536
3972026875: global: Timer #0 stopped at tick 3972026875. Duration: 14326875
3972043125: global: Number of accelerators running = 3
3972163125: global: Timer #0 started at tick 3972163125
3978418875: system.acctest.grayscale0_dma: Transfer completed in 6.763 us
3986020875: system.acctest.elem_matrix0_dma: SRC:0x00000000821b1300, DST:0x0000000024010020, LEN:65536
3986265625: global: Timer #0 stopped at tick 3986265625. Duration: 14102500
3986281875: global: Number of accelerators running = 3
3986400625: global: Timer #0 started at tick 3986400625
3986608125: global: DAG ID = 1
3986621875: global: Node ID = 1
3986640000: global: Node deadline difference = -13841
3986652500: global: Predicted memory time / byte = 0 us/byte
3986665000: global: Predicted memory time = 0 us
3986677500: global: Predicted memory time / byte = 0 us/byte
3986690000: global: Predicted memory time = 0 us
3986702500: global: Predicted memory time / byte = 0 us/byte
3986715000: global: Predicted memory time = 0 us
3986727500: global: Predicted memory time / byte = 0 us/byte
3986740000: global: Predicted memory time = 0 us
3986752500: global: Predicted memory access size = 0
3986765000: global: Predicted memory access size = 49152
3986777500: global: Predicted memory access size = 0
3986790000: global: Predicted memory access size = 65536
3986922500: global: Timer #0 stopped at tick 3986922500. Duration: 521875
3986938750: global: Number of accelerators running = 2
3998005875: system.acctest.elem_matrix0_dma: Transfer completed in 11.985 us
3998093125: global: Timer #0 started at tick 3998093125
3999475000: global: Timer #0 stopped at tick 3999475000. Duration: 1381875
3999491250: global: Number of accelerators running = 2
********************************************************************************
system.acctest.elem_matrix0.compute
   ========= Performance Analysis =============
   Setup Time:                      7.231144seconds
   Simulation Time:                 192.451781seconds
   System Clock:                    1.000000GHz
   Transistor Latency:              1ns
   Runtime:                         10932 cycles
   Runtime:                         10.932000 us
   Stalls:                          1 cycles
   Executed Nodes:                  10930 cycles

********************************************************************************
   ========= Performance Analysis =================
   Setup Time:                      7231144195.000000ns
   Simulation Time:                 192451780710.000000ns
   System Clock:                    1.000000GHz
   Transistor Latency:              0ns
   Runtime:                         10932 cycles
   Runtime:                         0.000001 seconds
   Stalls:                          1 cycles
       Load Only:                   0 cycles
       Store Only:                  1 cycles
       Compute Only:                0 cycles
       Compute & Store:             0 cycles
       Load & Store:                0 cycles
       Load & Compute:              0 cycles
       Load & Compute & Store:      0 cycles
   Executed Nodes:                  10930 cycles
       Load Only:                   0 cycles
       Store Only:                  4 cycles
       Compute Only:                1 cycles
       Compute & Store:             21 cycles
       Load & Store:                0 cycles
       Load & Compute:              6 cycles
       Load & Compute & Store:      10898 cycles

   ========= Runtime FU's ========= (Max | Avg) ===
   Counter FU's:                      32 | 0.046838
   Integer Add/Sub FU's:               0 | 0.000000
   Integer Mul/Div FU's:               0 | 0.000000
   Integer Shifter FU's:               0 | 0.000000
   Integer Bitwise FU's:               1 | 0.000091
   Floating Point Float Add/Sub:       0 | 0.000000
   Floating Point Double Add/Sub:      0 | 0.000000
   Floating Point Float Mul/Div:      34 | 0.044252
   Floating Point Double Mul/Div:      0 | 0.000000
   0 Cycle Compare FU's:             102 | 0.046945
   GEP Instruction FU's:              96 | 0.046835
   Type Conversion FU's:               7 | 0.006782

   ========= Static FU's ==========================
   Counter FU's:                    0
   Integer Add/Sub FU's:            0
   Integer Mul/Div FU's:            0
   Integer Shifter FU's:            0
   Integer Bitwise FU's:            0
   Floating Point Float Add/Sub:    0
   Floating Point Double Add/Sub:   0
   Floating Point Float Mul/Div:    0
   Floating Point Double Mul/Div:   0
   0 Cycle Compare FU's:            0
   GEP Instruction FU's:            0
   Type Conversion FU's:            0
   Other:                           0

   ========= Pipeline Register Usage =============
   Total Number of Registers:       5641
   Max Register Usage Per Cycle:    137
   Avg Register Usage Per Cycle:    12.130992
   Avg Register Size (Bytes):       5.980606

   ========= Memory Configuration =================
   Cache Bus Ports:                 0
   Shared Cache Size:               0kB
   Local Bus Ports:                 0
   Private SPM Size:                256kB
   Private Read Ports:              0
   Private Write Ports:             0
   Private Read Bus Width:          64
   Private Write Bus Width:         64
       Memory Reads:                0
       Memory Writes:               0
   ========= Power Analysis ======================
   FU Leakage Power:                0.045377 mW 
   FU Dynamic Power:                0.142576 mW 
   FU Total Power:                  0.187953 mW 

   Registers Leakage Power:          0.005281 mW 
   Registers Dynamic Power:          0.015326 mW 
       Register Reads (Bits):        132616
       Register Writes (Bits):       133658
   Registers Total Power:            0.020607 mW

   SPM Leakage Power:               0.104100 mW
   SPM Read Dynamic Power:          3.776796 mW
   SPM Write Dynamic Power:         2.457440 mW
   SPM Total Power:                 6.338336 mW

   Cache Leakage Power:             0.000000 mW
   Cache Read Dynamic Power:        0.000000 mW
   Cache Write Dynamic Power:       0.000000 mW
   Cache Total Power:               0.000000 mW

   Accelerator Power:               0.208559 mW
   Accelerator Power (SPM):         6.546896 mW
   Accelerator Power (Cache):       0.208559 mW

   ========= Area Analysis =======================
   FU Area:                         5472.068359 um^2 (0.005472 mm^2)
   Register Area:                   429.271088 um^2 (0.000429 mm^2)
   SPM Area:                        2177.365505 um^2 (0.002177 mm^2)
   Cache Area:                      0.000000 um^2 (0.000000 mm^2)

   Accelerator Area:                5901.339355 um^2 (0.005901 mm^2)
   Accelerator Area (SPM):          8078.704860 um^2 (0.008079 mm^2)
   Accelerator Area (Cache):        5901.339355 um^2 (0.005901 mm^2)

   ========= SPM Resizing  =======================
   SPM Optimized Leakage Power:     0.004248 mW
   SPM Opt Area:                    178.524902 um^2

4010244375: global: Timer #0 started at tick 4010244375
4010543125: global: Timer #2 started at tick 4010543125
4010585625: global: Timer #2 stopped at tick 4010585625. Duration: 42500
4023787375: system.acctest.elem_matrix0_dma: SRC:0x0000000024020020, DST:0x0000000082271480, LEN:65536
4024139375: global: Timer #0 stopped at tick 4024139375. Duration: 13895000
4024155625: global: Number of accelerators running = 2
4030125375: system.acctest.elem_matrix0_dma: Transfer completed in 6.338 us
4030201250: global: Timer #0 started at tick 4030201250
4030384375: global: DAG ID = 2
4030398125: global: Node ID = 5
4030422500: global: Node deadline difference = -3478
4030435000: global: Predicted memory time / byte = 0 us/byte
4030447500: global: Predicted memory time = 0 us
4030460000: global: Predicted memory time / byte = 0 us/byte
4030472500: global: Predicted memory time = 0 us
4030485000: global: Predicted memory time / byte = 0 us/byte
4030497500: global: Predicted memory time = 0 us
4030510000: global: Predicted memory time / byte = 0 us/byte
4030522500: global: Predicted memory time = 0 us
4030535000: global: Predicted memory access size = 0
4030547500: global: Predicted memory access size = 131072
4030560000: global: Predicted memory access size = 0
4030572500: global: Predicted memory access size = 65536
4043852375: system.acctest.elem_matrix0_dma: SRC:0x0000000082221480, DST:0x0000000024000020, LEN:65536
4044053750: global: Timer #0 stopped at tick 4044053750. Duration: 13852500
4044070000: global: Number of accelerators running = 2
4055851375: system.acctest.elem_matrix0_dma: Transfer completed in 11.999 us
4055927500: global: Timer #0 started at tick 4055927500
4069242375: system.acctest.elem_matrix0_dma: SRC:0x00000000821d1300, DST:0x0000000024010020, LEN:65536
4069465000: global: Timer #0 stopped at tick 4069465000. Duration: 13537500
4069481250: global: Number of accelerators running = 2
4081216375: system.acctest.elem_matrix0_dma: Transfer completed in 11.974 us
4081292500: global: Timer #0 started at tick 4081292500
4082621250: global: Timer #0 stopped at tick 4082621250. Duration: 1328750
4082637500: global: Number of accelerators running = 2
********************************************************************************
system.acctest.elem_matrix0.compute
   ========= Performance Analysis =============
   Setup Time:                      8.810822seconds
   Simulation Time:                 200.756086seconds
   System Clock:                    1.000000GHz
   Transistor Latency:              1ns
   Runtime:                         10932 cycles
   Runtime:                         10.932000 us
   Stalls:                          1 cycles
   Executed Nodes:                  10930 cycles

********************************************************************************
   ========= Performance Analysis =================
   Setup Time:                      8810821935.000000ns
   Simulation Time:                 200756085883.000000ns
   System Clock:                    1.000000GHz
   Transistor Latency:              0ns
   Runtime:                         10932 cycles
   Runtime:                         0.000001 seconds
   Stalls:                          1 cycles
       Load Only:                   0 cycles
       Store Only:                  1 cycles
       Compute Only:                0 cycles
       Compute & Store:             0 cycles
       Load & Store:                0 cycles
       Load & Compute:              0 cycles
       Load & Compute & Store:      0 cycles
   Executed Nodes:                  10930 cycles
       Load Only:                   0 cycles
       Store Only:                  4 cycles
       Compute Only:                1 cycles
       Compute & Store:             21 cycles
       Load & Store:                0 cycles
       Load & Compute:              6 cycles
       Load & Compute & Store:      10898 cycles

   ========= Runtime FU's ========= (Max | Avg) ===
   Counter FU's:                      32 | 0.046838
   Integer Add/Sub FU's:               0 | 0.000000
   Integer Mul/Div FU's:               0 | 0.000000
   Integer Shifter FU's:               0 | 0.000000
   Integer Bitwise FU's:               1 | 0.000091
   Floating Point Float Add/Sub:       0 | 0.000000
   Floating Point Double Add/Sub:      0 | 0.000000
   Floating Point Float Mul/Div:      34 | 0.044252
   Floating Point Double Mul/Div:      0 | 0.000000
   0 Cycle Compare FU's:             102 | 0.046945
   GEP Instruction FU's:              96 | 0.046835
   Type Conversion FU's:               7 | 0.006782

   ========= Static FU's ==========================
   Counter FU's:                    0
   Integer Add/Sub FU's:            0
   Integer Mul/Div FU's:            0
   Integer Shifter FU's:            0
   Integer Bitwise FU's:            0
   Floating Point Float Add/Sub:    0
   Floating Point Double Add/Sub:   0
   Floating Point Float Mul/Div:    0
   Floating Point Double Mul/Div:   0
   0 Cycle Compare FU's:            0
   GEP Instruction FU's:            0
   Type Conversion FU's:            0
   Other:                           0

   ========= Pipeline Register Usage =============
   Total Number of Registers:       5641
   Max Register Usage Per Cycle:    137
   Avg Register Usage Per Cycle:    12.130992
   Avg Register Size (Bytes):       5.980606

   ========= Memory Configuration =================
   Cache Bus Ports:                 0
   Shared Cache Size:               0kB
   Local Bus Ports:                 0
   Private SPM Size:                256kB
   Private Read Ports:              0
   Private Write Ports:             0
   Private Read Bus Width:          64
   Private Write Bus Width:         64
       Memory Reads:                0
       Memory Writes:               0
   ========= Power Analysis ======================
   FU Leakage Power:                0.045377 mW 
   FU Dynamic Power:                0.142576 mW 
   FU Total Power:                  0.187953 mW 

   Registers Leakage Power:          0.005281 mW 
   Registers Dynamic Power:          0.015326 mW 
       Register Reads (Bits):        132616
       Register Writes (Bits):       133658
   Registers Total Power:            0.020607 mW

   SPM Leakage Power:               0.104100 mW
   SPM Read Dynamic Power:          4.579344 mW
   SPM Write Dynamic Power:         2.880682 mW
   SPM Total Power:                 7.564127 mW

   Cache Leakage Power:             0.000000 mW
   Cache Read Dynamic Power:        0.000000 mW
   Cache Write Dynamic Power:       0.000000 mW
   Cache Total Power:               0.000000 mW

   Accelerator Power:               0.208559 mW
   Accelerator Power (SPM):         7.772686 mW
   Accelerator Power (Cache):       0.208559 mW

   ========= Area Analysis =======================
   FU Area:                         5472.068359 um^2 (0.005472 mm^2)
   Register Area:                   429.271088 um^2 (0.000429 mm^2)
   SPM Area:                        2177.365505 um^2 (0.002177 mm^2)
   Cache Area:                      0.000000 um^2 (0.000000 mm^2)

   Accelerator Area:                5901.339355 um^2 (0.005901 mm^2)
   Accelerator Area (SPM):          8078.704860 um^2 (0.008079 mm^2)
   Accelerator Area (Cache):        5901.339355 um^2 (0.005901 mm^2)

   ========= SPM Resizing  =======================
   SPM Optimized Leakage Power:     0.004248 mW
   SPM Opt Area:                    178.524902 um^2

4093417500: global: Timer #0 started at tick 4093417500
4093715000: global: Timer #2 started at tick 4093715000
4093757500: global: Timer #2 stopped at tick 4093757500. Duration: 42500
4106955875: system.acctest.elem_matrix0_dma: SRC:0x0000000024020020, DST:0x0000000082281480, LEN:65536
4107306875: global: Timer #0 stopped at tick 4107306875. Duration: 13889375
4107323125: global: Number of accelerators running = 2
4113332875: system.acctest.elem_matrix0_dma: Transfer completed in 6.377 us
4113409375: global: Timer #0 started at tick 4113409375
4113594375: global: DAG ID = 2
4113608125: global: Node ID = 8
4113632500: global: Node deadline difference = -3395
4113645000: global: Predicted memory time / byte = 0 us/byte
4113657500: global: Predicted memory time = 0 us
4113670000: global: Predicted memory time / byte = 0 us/byte
4113682500: global: Predicted memory time = 0 us
4113695000: global: Predicted memory time / byte = 0 us/byte
4113707500: global: Predicted memory time = 0 us
4113720000: global: Predicted memory time / byte = 0 us/byte
4113732500: global: Predicted memory time = 0 us
4113745000: global: Predicted memory access size = 0
4113757500: global: Predicted memory access size = 131072
4113770000: global: Predicted memory access size = 0
4113782500: global: Predicted memory access size = 65536
4127060875: system.acctest.elem_matrix0_dma: SRC:0x0000000082221480, DST:0x0000000024000020, LEN:65536
4127271875: global: Timer #0 stopped at tick 4127271875. Duration: 13862500
4127288125: global: Number of accelerators running = 2
4139026875: system.acctest.elem_matrix0_dma: Transfer completed in 11.966 us
4139102500: global: Timer #0 started at tick 4139102500
4152431625: system.acctest.elem_matrix0_dma: SRC:0x00000000821f1300, DST:0x0000000024010020, LEN:65536
4152664375: global: Timer #0 stopped at tick 4152664375. Duration: 13561875
4152680625: global: Number of accelerators running = 2
4164426625: system.acctest.elem_matrix0_dma: Transfer completed in 11.995 us
4164502500: global: Timer #0 started at tick 4164502500
4165845625: global: Timer #0 stopped at tick 4165845625. Duration: 1343125
4165861875: global: Number of accelerators running = 2
********************************************************************************
system.acctest.elem_matrix0.compute
   ========= Performance Analysis =============
   Setup Time:                      8.301343seconds
   Simulation Time:                 193.535117seconds
   System Clock:                    1.000000GHz
   Transistor Latency:              1ns
   Runtime:                         10932 cycles
   Runtime:                         10.932000 us
   Stalls:                          1 cycles
   Executed Nodes:                  10930 cycles

********************************************************************************
   ========= Performance Analysis =================
   Setup Time:                      8301342886.000000ns
   Simulation Time:                 193535117119.000000ns
   System Clock:                    1.000000GHz
   Transistor Latency:              0ns
   Runtime:                         10932 cycles
   Runtime:                         0.000001 seconds
   Stalls:                          1 cycles
       Load Only:                   0 cycles
       Store Only:                  1 cycles
       Compute Only:                0 cycles
       Compute & Store:             0 cycles
       Load & Store:                0 cycles
       Load & Compute:              0 cycles
       Load & Compute & Store:      0 cycles
   Executed Nodes:                  10930 cycles
       Load Only:                   0 cycles
       Store Only:                  4 cycles
       Compute Only:                1 cycles
       Compute & Store:             21 cycles
       Load & Store:                0 cycles
       Load & Compute:              6 cycles
       Load & Compute & Store:      10898 cycles

   ========= Runtime FU's ========= (Max | Avg) ===
   Counter FU's:                      32 | 0.046838
   Integer Add/Sub FU's:               0 | 0.000000
   Integer Mul/Div FU's:               0 | 0.000000
   Integer Shifter FU's:               0 | 0.000000
   Integer Bitwise FU's:               1 | 0.000091
   Floating Point Float Add/Sub:       0 | 0.000000
   Floating Point Double Add/Sub:      0 | 0.000000
   Floating Point Float Mul/Div:      34 | 0.044252
   Floating Point Double Mul/Div:      0 | 0.000000
   0 Cycle Compare FU's:             102 | 0.046945
   GEP Instruction FU's:              96 | 0.046835
   Type Conversion FU's:               7 | 0.006782

   ========= Static FU's ==========================
   Counter FU's:                    0
   Integer Add/Sub FU's:            0
   Integer Mul/Div FU's:            0
   Integer Shifter FU's:            0
   Integer Bitwise FU's:            0
   Floating Point Float Add/Sub:    0
   Floating Point Double Add/Sub:   0
   Floating Point Float Mul/Div:    0
   Floating Point Double Mul/Div:   0
   0 Cycle Compare FU's:            0
   GEP Instruction FU's:            0
   Type Conversion FU's:            0
   Other:                           0

   ========= Pipeline Register Usage =============
   Total Number of Registers:       5641
   Max Register Usage Per Cycle:    137
   Avg Register Usage Per Cycle:    12.130992
   Avg Register Size (Bytes):       5.980606

   ========= Memory Configuration =================
   Cache Bus Ports:                 0
   Shared Cache Size:               0kB
   Local Bus Ports:                 0
   Private SPM Size:                256kB
   Private Read Ports:              0
   Private Write Ports:             0
   Private Read Bus Width:          64
   Private Write Bus Width:         64
       Memory Reads:                0
       Memory Writes:               0
   ========= Power Analysis ======================
   FU Leakage Power:                0.045377 mW 
   FU Dynamic Power:                0.142576 mW 
   FU Total Power:                  0.187953 mW 

   Registers Leakage Power:          0.005281 mW 
   Registers Dynamic Power:          0.015326 mW 
       Register Reads (Bits):        132616
       Register Writes (Bits):       133658
   Registers Total Power:            0.020607 mW

   SPM Leakage Power:               0.104100 mW
   SPM Read Dynamic Power:          4.985201 mW
   SPM Write Dynamic Power:         3.448926 mW
   SPM Total Power:                 8.538228 mW

   Cache Leakage Power:             0.000000 mW
   Cache Read Dynamic Power:        0.000000 mW
   Cache Write Dynamic Power:       0.000000 mW
   Cache Total Power:               0.000000 mW

   Accelerator Power:               0.208559 mW
   Accelerator Power (SPM):         8.746787 mW
   Accelerator Power (Cache):       0.208559 mW

   ========= Area Analysis =======================
   FU Area:                         5472.068359 um^2 (0.005472 mm^2)
   Register Area:                   429.271088 um^2 (0.000429 mm^2)
   SPM Area:                        2177.365505 um^2 (0.002177 mm^2)
   Cache Area:                      0.000000 um^2 (0.000000 mm^2)

   Accelerator Area:                5901.339355 um^2 (0.005901 mm^2)
   Accelerator Area (SPM):          8078.704860 um^2 (0.008079 mm^2)
   Accelerator Area (Cache):        5901.339355 um^2 (0.005901 mm^2)

   ========= SPM Resizing  =======================
   SPM Optimized Leakage Power:     0.004248 mW
   SPM Opt Area:                    178.524902 um^2

4176632500: global: Timer #0 started at tick 4176632500
4176936875: global: Timer #2 started at tick 4176936875
4176988750: global: Timer #2 stopped at tick 4176988750. Duration: 51875
4190175875: system.acctest.elem_matrix0_dma: SRC:0x0000000024020020, DST:0x00000000822f1480, LEN:65536
4190526875: global: Timer #0 stopped at tick 4190526875. Duration: 13894375
4190543125: global: Number of accelerators running = 2
4196455875: system.acctest.elem_matrix0_dma: Transfer completed in 6.28 us
4196532500: global: Timer #0 started at tick 4196532500
4196721250: global: DAG ID = 2
4196735000: global: Node ID = 13
4196753125: global: Node deadline difference = -3466
4196765625: global: Predicted memory time / byte = 0 us/byte
4196778125: global: Predicted memory time = 0 us
4196790625: global: Predicted memory time / byte = 0 us/byte
4196803125: global: Predicted memory time = 0 us
4196815625: global: Predicted memory time / byte = 0 us/byte
4196828125: global: Predicted memory time = 0 us
4196840625: global: Predicted memory time / byte = 0 us/byte
4196853125: global: Predicted memory time = 0 us
4196865625: global: Predicted memory access size = 0
4196878125: global: Predicted memory access size = 131072
4196890625: global: Predicted memory access size = 0
4196903125: global: Predicted memory access size = 65536
4210154500: system.acctest.elem_matrix0_dma: SRC:0x0000000082231480, DST:0x0000000024000020, LEN:65536
4210365625: global: Timer #0 stopped at tick 4210365625. Duration: 13833125
4210381875: global: Number of accelerators running = 2
4222133500: system.acctest.elem_matrix0_dma: Transfer completed in 11.979 us
4222209375: global: Timer #0 started at tick 4222209375
4235550875: system.acctest.elem_matrix0_dma: SRC:0x00000000821a1300, DST:0x0000000024010020, LEN:65536
4235783125: global: Timer #0 stopped at tick 4235783125. Duration: 13573750
4235799375: global: Number of accelerators running = 2
4247525875: system.acctest.elem_matrix0_dma: Transfer completed in 11.975 us
4247602500: global: Timer #0 started at tick 4247602500
4248915625: global: Timer #0 stopped at tick 4248915625. Duration: 1313125
4248931875: global: Number of accelerators running = 2
********************************************************************************
system.acctest.elem_matrix0.compute
   ========= Performance Analysis =============
   Setup Time:                      8.277200seconds
   Simulation Time:                 197.480946seconds
   System Clock:                    1.000000GHz
   Transistor Latency:              1ns
   Runtime:                         10932 cycles
   Runtime:                         10.932000 us
   Stalls:                          0 cycles
   Executed Nodes:                  10931 cycles

********************************************************************************
   ========= Performance Analysis =================
   Setup Time:                      8277199623.000000ns
   Simulation Time:                 197480945782.000000ns
   System Clock:                    1.000000GHz
   Transistor Latency:              0ns
   Runtime:                         10932 cycles
   Runtime:                         0.000001 seconds
   Stalls:                          0 cycles
       Load Only:                   0 cycles
       Store Only:                  0 cycles
       Compute Only:                0 cycles
       Compute & Store:             0 cycles
       Load & Store:                0 cycles
       Load & Compute:              0 cycles
       Load & Compute & Store:      0 cycles
   Executed Nodes:                  10931 cycles
       Load Only:                   0 cycles
       Store Only:                  5 cycles
       Compute Only:                1 cycles
       Compute & Store:             21 cycles
       Load & Store:                0 cycles
       Load & Compute:              7 cycles
       Load & Compute & Store:      10897 cycles

   ========= Runtime FU's ========= (Max | Avg) ===
   Counter FU's:                      32 | 0.046838
   Integer Add/Sub FU's:               0 | 0.000000
   Integer Mul/Div FU's:               0 | 0.000000
   Integer Shifter FU's:               0 | 0.000000
   Integer Bitwise FU's:               1 | 0.000091
   Floating Point Float Add/Sub:      34 | 0.044252
   Floating Point Double Add/Sub:      0 | 0.000000
   Floating Point Float Mul/Div:       0 | 0.000000
   Floating Point Double Mul/Div:      0 | 0.000000
   0 Cycle Compare FU's:             102 | 0.046974
   GEP Instruction FU's:              96 | 0.046835
   Type Conversion FU's:               7 | 0.006782

   ========= Static FU's ==========================
   Counter FU's:                    0
   Integer Add/Sub FU's:            0
   Integer Mul/Div FU's:            0
   Integer Shifter FU's:            0
   Integer Bitwise FU's:            0
   Floating Point Float Add/Sub:    0
   Floating Point Double Add/Sub:   0
   Floating Point Float Mul/Div:    0
   Floating Point Double Mul/Div:   0
   0 Cycle Compare FU's:            0
   GEP Instruction FU's:            0
   Type Conversion FU's:            0
   Other:                           0

   ========= Pipeline Register Usage =============
   Total Number of Registers:       5641
   Max Register Usage Per Cycle:    138
   Avg Register Usage Per Cycle:    12.130992
   Avg Register Size (Bytes):       5.980606

   ========= Memory Configuration =================
   Cache Bus Ports:                 0
   Shared Cache Size:               0kB
   Local Bus Ports:                 0
   Private SPM Size:                256kB
   Private Read Ports:              0
   Private Write Ports:             0
   Private Read Bus Width:          64
   Private Write Bus Width:         64
       Memory Reads:                0
       Memory Writes:               0
   ========= Power Analysis ======================
   FU Leakage Power:                0.519269 mW 
   FU Dynamic Power:                0.154621 mW 
   FU Total Power:                  0.673890 mW 

   Registers Leakage Power:          0.005281 mW 
   Registers Dynamic Power:          0.015326 mW 
       Register Reads (Bits):        132616
       Register Writes (Bits):       133658
   Registers Total Power:            0.020607 mW

   SPM Leakage Power:               0.104100 mW
   SPM Read Dynamic Power:          5.394845 mW
   SPM Write Dynamic Power:         3.846212 mW
   SPM Total Power:                 9.345157 mW

   Cache Leakage Power:             0.000000 mW
   Cache Read Dynamic Power:        0.000000 mW
   Cache Write Dynamic Power:       0.000000 mW
   Cache Total Power:               0.000000 mW

   Accelerator Power:               0.694497 mW
   Accelerator Power (SPM):         10.039654 mW
   Accelerator Power (Cache):       0.694497 mW

   ========= Area Analysis =======================
   FU Area:                         70212.562500 um^2 (0.070213 mm^2)
   Register Area:                   429.271088 um^2 (0.000429 mm^2)
   SPM Area:                        2177.365505 um^2 (0.002177 mm^2)
   Cache Area:                      0.000000 um^2 (0.000000 mm^2)

   Accelerator Area:                70641.835938 um^2 (0.070642 mm^2)
   Accelerator Area (SPM):          72819.201442 um^2 (0.072819 mm^2)
   Accelerator Area (Cache):        70641.835938 um^2 (0.070642 mm^2)

   ========= SPM Resizing  =======================
   SPM Optimized Leakage Power:     0.004248 mW
   SPM Opt Area:                    178.524902 um^2

4259707500: global: Timer #0 started at tick 4259707500
4260005000: global: Timer #2 started at tick 4260005000
4260047500: global: Timer #2 stopped at tick 4260047500. Duration: 42500
4273220875: system.acctest.elem_matrix0_dma: SRC:0x0000000024020020, DST:0x0000000082241480, LEN:65536
4273571875: global: Timer #0 stopped at tick 4273571875. Duration: 13864375
4273588125: global: Number of accelerators running = 2
4279545875: system.acctest.elem_matrix0_dma: Transfer completed in 6.325 us
4279622500: global: Timer #0 started at tick 4279622500
4279884375: global: DAG ID = 2
4279898125: global: Node ID = 2
4279916250: global: Node deadline difference = -3286
4279928750: global: Predicted memory time / byte = 0 us/byte
4279941250: global: Predicted memory time = 0 us
4279953750: global: Predicted memory time / byte = 0 us/byte
4279966250: global: Predicted memory time = 0 us
4279978750: global: Predicted memory time / byte = 0 us/byte
4279991250: global: Predicted memory time = 0 us
4280003750: global: Predicted memory time / byte = 0 us/byte
4280016250: global: Predicted memory time = 0 us
4280028750: global: Predicted memory access size = 0
4280041250: global: Predicted memory access size = 131072
4280053750: global: Predicted memory access size = 0
4280066250: global: Predicted memory access size = 65536
4293322375: system.acctest.elem_matrix0_dma: SRC:0x0000000082271480, DST:0x0000000024000020, LEN:65536
4293523750: global: Timer #0 stopped at tick 4293523750. Duration: 13901250
4293540000: global: Number of accelerators running = 2
4305533375: system.acctest.elem_matrix0_dma: Transfer completed in 12.211 us
4305609375: global: Timer #0 started at tick 4305609375
4318910875: system.acctest.elem_matrix0_dma: SRC:0x00000000821c1300, DST:0x0000000024010020, LEN:65536
4319126250: global: Timer #0 stopped at tick 4319126250. Duration: 13516875
4319142500: global: Number of accelerators running = 2
4330852875: system.acctest.elem_matrix0_dma: Transfer completed in 11.942 us
4330929375: global: Timer #0 started at tick 4330929375
4332233750: global: Timer #0 stopped at tick 4332233750. Duration: 1304375
4332250000: global: Number of accelerators running = 2
********************************************************************************
system.acctest.elem_matrix0.compute
   ========= Performance Analysis =============
   Setup Time:                      10.439868seconds
   Simulation Time:                 195.730791seconds
   System Clock:                    1.000000GHz
   Transistor Latency:              1ns
   Runtime:                         10932 cycles
   Runtime:                         10.932000 us
   Stalls:                          0 cycles
   Executed Nodes:                  10931 cycles

********************************************************************************
   ========= Performance Analysis =================
   Setup Time:                      10439868256.000000ns
   Simulation Time:                 195730790708.000000ns
   System Clock:                    1.000000GHz
   Transistor Latency:              0ns
   Runtime:                         10932 cycles
   Runtime:                         0.000001 seconds
   Stalls:                          0 cycles
       Load Only:                   0 cycles
       Store Only:                  0 cycles
       Compute Only:                0 cycles
       Compute & Store:             0 cycles
       Load & Store:                0 cycles
       Load & Compute:              0 cycles
       Load & Compute & Store:      0 cycles
   Executed Nodes:                  10931 cycles
       Load Only:                   0 cycles
       Store Only:                  5 cycles
       Compute Only:                1 cycles
       Compute & Store:             21 cycles
       Load & Store:                0 cycles
       Load & Compute:              7 cycles
       Load & Compute & Store:      10897 cycles

   ========= Runtime FU's ========= (Max | Avg) ===
   Counter FU's:                      32 | 0.046838
   Integer Add/Sub FU's:               0 | 0.000000
   Integer Mul/Div FU's:               0 | 0.000000
   Integer Shifter FU's:               0 | 0.000000
   Integer Bitwise FU's:               1 | 0.000091
   Floating Point Float Add/Sub:      34 | 0.044252
   Floating Point Double Add/Sub:      0 | 0.000000
   Floating Point Float Mul/Div:       0 | 0.000000
   Floating Point Double Mul/Div:      0 | 0.000000
   0 Cycle Compare FU's:             102 | 0.046974
   GEP Instruction FU's:              96 | 0.046835
   Type Conversion FU's:               7 | 0.006782

   ========= Static FU's ==========================
   Counter FU's:                    0
   Integer Add/Sub FU's:            0
   Integer Mul/Div FU's:            0
   Integer Shifter FU's:            0
   Integer Bitwise FU's:            0
   Floating Point Float Add/Sub:    0
   Floating Point Double Add/Sub:   0
   Floating Point Float Mul/Div:    0
   Floating Point Double Mul/Div:   0
   0 Cycle Compare FU's:            0
   GEP Instruction FU's:            0
   Type Conversion FU's:            0
   Other:                           0

   ========= Pipeline Register Usage =============
   Total Number of Registers:       5641
   Max Register Usage Per Cycle:    138
   Avg Register Usage Per Cycle:    12.130992
   Avg Register Size (Bytes):       5.980606

   ========= Memory Configuration =================
   Cache Bus Ports:                 0
   Shared Cache Size:               0kB
   Local Bus Ports:                 0
   Private SPM Size:                256kB
   Private Read Ports:              0
   Private Write Ports:             0
   Private Read Bus Width:          64
   Private Write Bus Width:         64
       Memory Reads:                0
       Memory Writes:               0
   ========= Power Analysis ======================
   FU Leakage Power:                0.519269 mW 
   FU Dynamic Power:                0.154621 mW 
   FU Total Power:                  0.673890 mW 

   Registers Leakage Power:          0.005281 mW 
   Registers Dynamic Power:          0.015326 mW 
       Register Reads (Bits):        132616
       Register Writes (Bits):       133658
[...]
   Executed Nodes:                  10942 cycles
       Load Only:                   0 cycles
       Store Only:                  16 cycles
       Compute Only:                1 cycles
       Compute & Store:             21 cycles
       Load & Store:                0 cycles
       Load & Compute:              18 cycles
       Load & Compute & Store:      10886 cycles

   ========= Runtime FU's ========= (Max | Avg) ===
   Counter FU's:                      32 | 0.046786
   Integer Add/Sub FU's:               0 | 0.000000
   Integer Mul/Div FU's:               0 | 0.000000
   Integer Shifter FU's:               0 | 0.000000
   Integer Bitwise FU's:               1 | 0.000091
   Floating Point Float Add/Sub:       0 | 0.000000
   Floating Point Double Add/Sub:      0 | 0.000000
   Floating Point Float Mul/Div:       0 | 0.000000
   Floating Point Double Mul/Div:      0 | 0.000000
   0 Cycle Compare FU's:             102 | 0.047066
   GEP Instruction FU's:              96 | 0.046784
   Type Conversion FU's:               7 | 0.006775

   ========= Static FU's ==========================
   Counter FU's:                    0
   Integer Add/Sub FU's:            0
   Integer Mul/Div FU's:            0
   Integer Shifter FU's:            0
   Integer Bitwise FU's:            0
   Floating Point Float Add/Sub:    0
   Floating Point Double Add/Sub:   0
   Floating Point Float Mul/Div:    0
   Floating Point Double Mul/Div:   0
   0 Cycle Compare FU's:            0
   GEP Instruction FU's:            0
   Type Conversion FU's:            0
   Other:                           0

   ========= Pipeline Register Usage =============
   Total Number of Registers:       5641
   Max Register Usage Per Cycle:    137
   Avg Register Usage Per Cycle:    12.117690
   Avg Register Size (Bytes):       5.980606

   ========= Memory Configuration =================
   Cache Bus Ports:                 0
   Shared Cache Size:               0kB
   Local Bus Ports:                 0
   Private SPM Size:                256kB
   Private Read Ports:              0
   Private Write Ports:             0
   Private Read Bus Width:          64
   Private Write Bus Width:         64
       Memory Reads:                0
       Memory Writes:               0
   ========= Power Analysis ======================
   FU Leakage Power:                0.000611 mW 
   FU Dynamic Power:                0.036818 mW 
   FU Total Power:                  0.037429 mW 

   Registers Leakage Power:          0.005281 mW 
   Registers Dynamic Power:          0.015342 mW 
       Register Reads (Bits):        132616
       Register Writes (Bits):       133658
   Registers Total Power:            0.020624 mW

   SPM Leakage Power:               0.104100 mW
   SPM Read Dynamic Power:          26.058773 mW
   SPM Write Dynamic Power:         20.320537 mW
   SPM Total Power:                 46.483410 mW

   Cache Leakage Power:             0.000000 mW
   Cache Read Dynamic Power:        0.000000 mW
   Cache Write Dynamic Power:       0.000000 mW
   Cache Total Power:               0.000000 mW

   Accelerator Power:               0.058053 mW
   Accelerator Power (SPM):         46.541464 mW
   Accelerator Power (Cache):       0.058053 mW

   ========= Area Analysis =======================
   FU Area:                         50.369961 um^2 (0.000050 mm^2)
   Register Area:                   429.271088 um^2 (0.000429 mm^2)
   SPM Area:                        2177.365505 um^2 (0.002177 mm^2)
   Cache Area:                      0.000000 um^2 (0.000000 mm^2)

   Accelerator Area:                479.641052 um^2 (0.000480 mm^2)
   Accelerator Area (SPM):          2657.006557 um^2 (0.002657 mm^2)
   Accelerator Area (Cache):        479.641052 um^2 (0.000480 mm^2)

   ========= SPM Resizing  =======================
   SPM Optimized Leakage Power:     0.004248 mW
   SPM Opt Area:                    178.524902 um^2

30981225000: global: Timer #0 started at tick 30981225000
30981516250: global: Timer #2 started at tick 30981516250
30981546875: global: Timer #2 stopped at tick 30981546875. Duration: 30625
30981838750: global: DAG ID = 0
30981852500: global: Node ID = 19
30981865625: global: Node deadline difference = 12184
30981878125: global: Predicted memory time / byte = 0 us/byte
30981890625: global: Predicted memory time = 0 us
30981903125: global: Predicted memory time / byte = 0 us/byte
30981915625: global: Predicted memory time = 0 us
30981928125: global: Predicted memory time / byte = 0 us/byte
30981940625: global: Predicted memory time = 0 us
30981953125: global: Predicted memory time / byte = 0 us/byte
30981965625: global: Predicted memory time = 0 us
30981978125: global: Predicted memory access size = 0
30981990625: global: Predicted memory access size = 131072
30982003125: global: Predicted memory access size = 0
30982015625: global: Predicted memory access size = 0
30982778750: system.acctest.convolution0_dma: SRC:0x0000000024020020, DST:0x0000000022000020, LEN:65536
30983001250: global: Timer #0 stopped at tick 30983001250. Duration: 1776250
30983017500: global: Number of accelerators running = 1
30993039750: system.acctest.convolution0_dma: Transfer completed in 10.261 us
30993125625: global: Timer #0 started at tick 30993125625
30994006625: system.acctest.convolution0_dma: SRC:0x0000000082018800, DST:0x0000000022030020, LEN:100
30994194625: system.acctest.convolution0_dma: Transfer completed in 0.188 us
30994222500: global: Timer #0 stopped at tick 30994222500. Duration: 1096875
30994238750: global: Number of accelerators running = 1
30994347500: global: Timer #0 started at tick 30994347500
30995646250: global: Timer #0 stopped at tick 30995646250. Duration: 1298750
30995662500: global: Number of accelerators running = 1
********************************************************************************
system.acctest.convolution0.compute
   ========= Performance Analysis =============
   Setup Time:                      0.514006seconds
   Simulation Time:                 211.219571seconds
   System Clock:                    1.000000GHz
   Transistor Latency:              1ns
   Runtime:                         1545605 cycles
   Runtime:                         1545.605000 us
   Stalls:                          0 cycles
   Executed Nodes:                  1545604 cycles

********************************************************************************
   ========= Performance Analysis =================
   Setup Time:                      514005730.000000ns
   Simulation Time:                 211219570632.000000ns
   System Clock:                    1.000000GHz
   Transistor Latency:              0ns
   Runtime:                         1545605 cycles
   Runtime:                         0.000155 seconds
   Stalls:                          0 cycles
       Load Only:                   0 cycles
       Store Only:                  0 cycles
       Compute Only:                0 cycles
       Compute & Store:             0 cycles
       Load & Store:                0 cycles
       Load & Compute:              0 cycles
       Load & Compute & Store:      0 cycles
   Executed Nodes:                  1545604 cycles
       Load Only:                   0 cycles
       Store Only:                  0 cycles
       Compute Only:                1127274 cycles
       Compute & Store:             16374 cycles
       Load & Store:                0 cycles
       Load & Compute:              401946 cycles
       Load & Compute & Store:      10 cycles

   ========= Runtime FU's ========= (Max | Avg) ===
   Counter FU's:                       3 | 0.112298
   Integer Add/Sub FU's:               4 | 0.211564
   Integer Mul/Div FU's:               1 | 0.052505
   Integer Shifter FU's:              10 | 0.005268
   Integer Bitwise FU's:               2 | 0.184266
   Floating Point Float Add/Sub:       5 | 0.207991
   Floating Point Double Add/Sub:      0 | 0.000000
   Floating Point Float Mul/Div:       2 | 0.130117
   Floating Point Double Mul/Div:      0 | 0.000000
   0 Cycle Compare FU's:              40 | 0.145956
   GEP Instruction FU's:               4 | 0.132683
   Type Conversion FU's:               7 | 0.186618

   ========= Static FU's ==========================
   Counter FU's:                    0
   Integer Add/Sub FU's:            0
   Integer Mul/Div FU's:            0
   Integer Shifter FU's:            0
   Integer Bitwise FU's:            0
   Floating Point Float Add/Sub:    0
   Floating Point Double Add/Sub:   0
   Floating Point Float Mul/Div:    0
   Floating Point Double Mul/Div:   0
   0 Cycle Compare FU's:            0
   GEP Instruction FU's:            0
   Type Conversion FU's:            0
   Other:                           0

   ========= Pipeline Register Usage =============
   Total Number of Registers:       1702
   Max Register Usage Per Cycle:    20
   Avg Register Usage Per Cycle:    6.348199
   Avg Register Size (Bytes):       5.569148

   ========= Memory Configuration =================
   Cache Bus Ports:                 0
   Shared Cache Size:               0kB
   Local Bus Ports:                 0
   Private SPM Size:                192kB
   Private Read Ports:              0
   Private Write Ports:             0
   Private Read Bus Width:          64
   Private Write Bus Width:         64
       Memory Reads:                0
       Memory Writes:               0
   ========= Power Analysis ======================
   FU Leakage Power:                0.196912 mW 
   FU Dynamic Power:                2743.028564 mW 
   FU Total Power:                  2743.225586 mW 

   Registers Leakage Power:          0.002459 mW 
   Registers Dynamic Power:          75.251152 mW 
       Register Reads (Bits):        9811808
       Register Writes (Bits):       10049727
   Registers Total Power:            75.253609 mW

   SPM Leakage Power:               0.078311 mW
   SPM Read Dynamic Power:          39.557522 mW
   SPM Write Dynamic Power:         6.188103 mW
   SPM Total Power:                 45.823935 mW

   Cache Leakage Power:             0.000000 mW
   Cache Read Dynamic Power:        0.000000 mW
   Cache Write Dynamic Power:       0.000000 mW
   Cache Total Power:               0.000000 mW

   Accelerator Power:               2818.479248 mW
   Accelerator Power (SPM):         2864.303183 mW
   Accelerator Power (Cache):       2818.479248 mW

   ========= Area Analysis =======================
   FU Area:                         22931.867188 um^2 (0.022932 mm^2)
   Register Area:                   199.868912 um^2 (0.000200 mm^2)
   SPM Area:                        1748.188735 um^2 (0.001748 mm^2)
   Cache Area:                      0.000000 um^2 (0.000000 mm^2)

   Accelerator Area:                23131.736328 um^2 (0.023132 mm^2)
   Accelerator Area (SPM):          24879.925063 um^2 (0.024880 mm^2)
   Accelerator Area (Cache):        23131.736328 um^2 (0.023132 mm^2)

   ========= SPM Resizing  =======================
   SPM Optimized Leakage Power:     0.002053 mW
   SPM Opt Area:                    145.024971 um^2

32541120000: global: Timer #0 started at tick 32541120000
32541351250: global: Timer #2 started at tick 32541351250
32541381875: global: Timer #2 stopped at tick 32541381875. Duration: 30625
32541618750: global: DAG ID = 0
32541632500: global: Node ID = 20
32541645625: global: Node deadline difference = 12167
32541658125: global: Predicted memory time / byte = 0 us/byte
32541670625: global: Predicted memory time = 0 us
32541683125: global: Predicted memory time / byte = 0 us/byte
32541695625: global: Predicted memory time = 0 us
32541708125: global: Predicted memory time / byte = 0 us/byte
32541720625: global: Predicted memory time = 0 us
32541733125: global: Predicted memory time / byte = 0 us/byte
32541745625: global: Predicted memory time = 0 us
32541758125: global: Predicted memory access size = 0
32541770625: global: Predicted memory access size = 65636
32541783125: global: Predicted memory access size = 0
32541795625: global: Predicted memory access size = 0
32555095875: system.acctest.elem_matrix0_dma: SRC:0x0000000082048cc0, DST:0x0000000024000020, LEN:65536
32555293125: global: Timer #0 stopped at tick 32555293125. Duration: 14173125
32555309375: global: Number of accelerators running = 1
32566949875: system.acctest.elem_matrix0_dma: Transfer completed in 11.854 us
32567035625: global: Timer #0 started at tick 32567035625
32567900875: system.acctest.elem_matrix0_dma: SRC:0x0000000022010020, DST:0x0000000024010020, LEN:65536
32568118750: global: Timer #0 stopped at tick 32568118750. Duration: 1083125
32568135000: global: Number of accelerators running = 1
32578161875: system.acctest.elem_matrix0_dma: Transfer completed in 10.261 us
32578237500: global: Timer #0 started at tick 32578237500
32579556875: global: Timer #0 stopped at tick 32579556875. Duration: 1319375
32579573125: global: Number of accelerators running = 1
********************************************************************************
system.acctest.elem_matrix0.compute
   ========= Performance Analysis =============
   Setup Time:                      3.408453seconds
   Simulation Time:                 88.348478seconds
   System Clock:                    1.000000GHz
   Transistor Latency:              1ns
   Runtime:                         10932 cycles
   Runtime:                         10.932000 us
   Stalls:                          1 cycles
   Executed Nodes:                  10930 cycles

********************************************************************************
   ========= Performance Analysis =================
   Setup Time:                      3408453473.000000ns
   Simulation Time:                 88348477909.000000ns
   System Clock:                    1.000000GHz
   Transistor Latency:              0ns
   Runtime:                         10932 cycles
   Runtime:                         0.000001 seconds
   Stalls:                          1 cycles
       Load Only:                   0 cycles
       Store Only:                  1 cycles
       Compute Only:                0 cycles
       Compute & Store:             0 cycles
       Load & Store:                0 cycles
       Load & Compute:              0 cycles
       Load & Compute & Store:      0 cycles
   Executed Nodes:                  10930 cycles
       Load Only:                   0 cycles
       Store Only:                  4 cycles
       Compute Only:                1 cycles
       Compute & Store:             21 cycles
       Load & Store:                0 cycles
       Load & Compute:              6 cycles
       Load & Compute & Store:      10898 cycles

   ========= Runtime FU's ========= (Max | Avg) ===
   Counter FU's:                      32 | 0.046838
   Integer Add/Sub FU's:               0 | 0.000000
   Integer Mul/Div FU's:               0 | 0.000000
   Integer Shifter FU's:               0 | 0.000000
   Integer Bitwise FU's:               1 | 0.000091
   Floating Point Float Add/Sub:       0 | 0.000000
   Floating Point Double Add/Sub:      0 | 0.000000
   Floating Point Float Mul/Div:      34 | 0.044252
   Floating Point Double Mul/Div:      0 | 0.000000
   0 Cycle Compare FU's:             102 | 0.046945
   GEP Instruction FU's:              96 | 0.046835
   Type Conversion FU's:               7 | 0.006782

   ========= Static FU's ==========================
   Counter FU's:                    0
   Integer Add/Sub FU's:            0
   Integer Mul/Div FU's:            0
   Integer Shifter FU's:            0
   Integer Bitwise FU's:            0
   Floating Point Float Add/Sub:    0
   Floating Point Double Add/Sub:   0
   Floating Point Float Mul/Div:    0
   Floating Point Double Mul/Div:   0
   0 Cycle Compare FU's:            0
   GEP Instruction FU's:            0
   Type Conversion FU's:            0
   Other:                           0

   ========= Pipeline Register Usage =============
   Total Number of Registers:       5641
   Max Register Usage Per Cycle:    137
   Avg Register Usage Per Cycle:    12.130992
   Avg Register Size (Bytes):       5.980606

   ========= Memory Configuration =================
   Cache Bus Ports:                 0
   Shared Cache Size:               0kB
   Local Bus Ports:                 0
   Private SPM Size:                256kB
   Private Read Ports:              0
   Private Write Ports:             0
   Private Read Bus Width:          64
   Private Write Bus Width:         64
       Memory Reads:                0
       Memory Writes:               0
   ========= Power Analysis ======================
   FU Leakage Power:                0.045377 mW 
   FU Dynamic Power:                0.142576 mW 
   FU Total Power:                  0.187953 mW 

   Registers Leakage Power:          0.005281 mW 
   Registers Dynamic Power:          0.015326 mW 
       Register Reads (Bits):        132616
       Register Writes (Bits):       133658
   Registers Total Power:            0.020607 mW

   SPM Leakage Power:               0.104100 mW
   SPM Read Dynamic Power:          26.158944 mW
   SPM Write Dynamic Power:         20.372023 mW
   SPM Total Power:                 46.635067 mW

   Cache Leakage Power:             0.000000 mW
   Cache Read Dynamic Power:        0.000000 mW
   Cache Write Dynamic Power:       0.000000 mW
   Cache Total Power:               0.000000 mW

   Accelerator Power:               0.208559 mW
   Accelerator Power (SPM):         46.843627 mW
   Accelerator Power (Cache):       0.208559 mW

   ========= Area Analysis =======================
   FU Area:                         5472.068359 um^2 (0.005472 mm^2)
   Register Area:                   429.271088 um^2 (0.000429 mm^2)
   SPM Area:                        2177.365505 um^2 (0.002177 mm^2)
   Cache Area:                      0.000000 um^2 (0.000000 mm^2)

   Accelerator Area:                5901.339355 um^2 (0.005901 mm^2)
   Accelerator Area (SPM):          8078.704860 um^2 (0.008079 mm^2)
   Accelerator Area (Cache):        5901.339355 um^2 (0.005901 mm^2)

   ========= SPM Resizing  =======================
   SPM Optimized Leakage Power:     0.004248 mW
   SPM Opt Area:                    178.524902 um^2

32590352500: global: Timer #0 started at tick 32590352500
32603642375: system.acctest.elem_matrix0_dma: SRC:0x0000000024020020, DST:0x0000000082048cc0, LEN:65536
32603990625: global: Timer #0 stopped at tick 32603990625. Duration: 13638125
32604006875: global: Number of accelerators running = 1
32609985375: system.acctest.elem_matrix0_dma: Transfer completed in 6.343 us
32610061250: global: Timer #0 started at tick 32610061250
32610257500: global: DAG ID = 0
32610271250: global: Node ID = 21
32610295000: global: DAG execution time = 28846
32610308125: global: DAG deadline difference = 12179
32610325000: global: Node deadline difference = 12179
32610337500: global: Predicted memory time / byte = 0 us/byte
32610350000: global: Predicted memory time = 0 us
32610362500: global: Predicted memory time / byte = 0 us/byte
32610375000: global: Predicted memory time = 0 us
32610387500: global: Predicted memory time / byte = 0 us/byte
32610400000: global: Predicted memory time = 0 us
32610412500: global: Predicted memory time / byte = 0 us/byte
32610425000: global: Predicted memory time = 0 us
32610437500: global: Predicted memory access size = 0
32610450000: global: Predicted memory access size = 131072
32610462500: global: Predicted memory access size = 0
32610475000: global: Predicted memory access size = 65536
32610568750: global: Timer #0 stopped at tick 32610568750. Duration: 507500
32610585000: global: Number of accelerators running = 0
32610664375: global: Number of forwards = 63
32610818125: global: Number of colocations = 41
32610837500: global: Number of DAG deadlines met = 1
32610856875: global: Number of node deadlines met = 102
32611023125: global: Total predicted compute time = 0 us
Exiting @ tick 32611318125 because m5_exit instruction encountered
