gem5 Simulator System.  http://gem5.org
gem5 is copyrighted software; use the --copyright option for details.

gem5 compiled May 11 2023 13:12:28
gem5 started May 28 2023 00:42:03
gem5 executing on node4x10a.cs.rochester.edu, pid 37668
command line: /u/sgupta45/gem5-SALAM/build/ARM/gem5_bus.opt --debug-flags=HWACC,CommInterface,LLVMInterface,StreamDma,NoncoherentDma,TickTimer,SchedulerStats --outdir=BM_ARM_OUT/comb_3/canny_0_deblur_1_gru_0_harris_1_lstm_1_GEDF_D configs/SALAM/scheduler.py --mem-size=4GB --mem-type=LPDDR5_6400_1x16_BG_BL32 --kernel=/u/sgupta45/gem5-SALAM/benchmarks/scheduler/sw/bin_comb_3/canny_0_deblur_1_gru_0_harris_1_lstm_1_GEDF_D.elf --vans-config-path=/u/sgupta45/VANS/config --disk-image=/u/sgupta45/gem5-SALAM/baremetal/common/fake.iso --machine-type=VExpress_GEM5_V1 --dtb-file=none --bare-metal --cpu-type=ex5_LITTLE --cpu-clock=1.6GHz --accpath=/u/sgupta45/gem5-SALAM/benchmarks --caches --cacheline_size=64 --l1d_size=32kB --l1d_assoc=4 --l1i_size=32kB --l1i_assoc=2

Global frequency set at 1000000000000 ticks per second
Cycle Counts Loaded!
Cycle Counts Loaded!
Cycle Counts Loaded!
Cycle Counts Loaded!
Cycle Counts Loaded!
Cycle Counts Loaded!
Cycle Counts Loaded!
Cycle Counts Loaded!
Cycle Counts Loaded!
Cycle Counts Loaded!
Cycle Counts Loaded!
**** REAL SIMULATION ****
3676535625: global: Timer #2 started at tick 3676535625
3676880625: global: Timer #2 stopped at tick 3676880625. Duration: 345000
3680789375: global: Timer #2 started at tick 3680789375
3681158750: global: Timer #2 stopped at tick 3681158750. Duration: 369375
3684662500: global: Timer #2 started at tick 3684662500
3684715000: global: Timer #2 stopped at tick 3684715000. Duration: 52500
3721585875: system.acctest.elem_matrix0_dma: SRC:0x0000000082350940, DST:0x0000000024000020, LEN:65536
3726459500: system.acctest.isp0_dma: SRC:0x0000000082058a40, DST:0x0000000027000020, LEN:16900
3726907500: global: Number of accelerators running = 2
3731650500: system.acctest.isp0_dma: Transfer completed in 5.191 us
3732135625: global: Timer #0 started at tick 3732135625
3733926250: global: Timer #0 stopped at tick 3733926250. Duration: 1790625
3733945000: global: Number of accelerators running = 2
3735841875: system.acctest.elem_matrix0_dma: Transfer completed in 14.256 us
3735978125: global: Timer #0 started at tick 3735978125
3750352375: system.acctest.elem_matrix0_dma: SRC:0x0000000082210780, DST:0x0000000024010020, LEN:65536
3750712500: global: Timer #0 stopped at tick 3750712500. Duration: 14734375
3750726875: global: Number of accelerators running = 2
3762354375: system.acctest.elem_matrix0_dma: Transfer completed in 12.002 us
3762427500: global: Timer #0 started at tick 3762427500
3763871250: global: Timer #0 stopped at tick 3763871250. Duration: 1443750
3763885625: global: Number of accelerators running = 2
********************************************************************************
system.acctest.isp0.compute
   ========= Performance Analysis =============
   Setup Time:                      0.27207seconds
   Simulation Time:                 722.709seconds
   System Clock:                    1GHz
   Transistor Latency:              1ns
   Runtime:                         34882 cycles
   Runtime:                         34.882 us
   Stalls:                          1 cycles
   Executed Nodes:                  34880 cycles

********************************************************************************
   ========= Performance Analysis =================
   Setup Time:                      2.7207e+08ns
   Simulation Time:                 7.22709e+11ns
   System Clock:                    1GHz
   Transistor Latency:              0ns
   Runtime:                         34882 cycles
   Runtime:                         3.4882e-06 seconds
   Stalls:                          1 cycles
       Load Only:                   0 cycles
       Store Only:                  1 cycles
       Compute Only:                0 cycles
       Compute & Store:             0 cycles
       Load & Store:                0 cycles
       Load & Compute:              0 cycles
       Load & Compute & Store:      0 cycles
   Executed Nodes:                  34880 cycles
       Load Only:                   0 cycles
       Store Only:                  1 cycles
       Compute Only:                3453 cycles
       Compute & Store:             19014 cycles
       Load & Store:                0 cycles
       Load & Compute:              2467 cycles
       Load & Compute & Store:      9945 cycles

   ========= Runtime FU's ========= (Max | Avg) ===
   Counter FU's:                      10 | 0.118075
   Integer Add/Sub FU's:              76 | 0.082082
   Integer Mul/Div FU's:              11 | 0.043888
   Integer Shifter FU's:              42 | 0.055974
   Integer Bitwise FU's:               4 | 0.059443
   Floating Point Float Add/Sub:      53 | 0.116839
   Floating Point Double Add/Sub:      0 | 0.000000
   Floating Point Float Mul/Div:      76 | 0.625626
   Floating Point Double Mul/Div:      0 | 0.000000
   0 Cycle Compare FU's:              85 | 0.664984
   GEP Instruction FU's:              33 | 0.117424
   Type Conversion FU's:             110 | 0.379700

   ========= Static FU's ==========================
   Counter FU's:                    0
   Integer Add/Sub FU's:            0
   Integer Mul/Div FU's:            0
   Integer Shifter FU's:            0
   Integer Bitwise FU's:            0
   Floating Point Float Add/Sub:    0
   Floating Point Double Add/Sub:   0
   Floating Point Float Mul/Div:    0
   Floating Point Double Mul/Div:   0
   0 Cycle Compare FU's:            0
   GEP Instruction FU's:            0
   Type Conversion FU's:            0
   Other:                           0

   ========= Pipeline Register Usage =============
   Total Number of Registers:       1620
   Max Register Usage Per Cycle:    151
   Avg Register Usage Per Cycle:    58.744711
   Avg Register Size (Bytes):       5.073357

   ========= Memory Configuration =================
   Cache Bus Ports:                 0
   Shared Cache Size:               0kB
   Local Bus Ports:                 0
   Private SPM Size:                112kB
   Private Read Ports:              0
   Private Write Ports:             0
   Private Read Bus Width:          64
   Private Write Bus Width:         64
       Memory Reads:                0
       Memory Writes:               0
   ========= Power Analysis ======================
   FU Leakage Power:                1.637787 mW 
   FU Dynamic Power:                9.655087 mW 
   FU Total Power:                  11.292874 mW 

   Registers Leakage Power:          0.021654 mW 
   Registers Dynamic Power:          3.085961 mW 
       Register Reads (Bits):        2049133
       Register Writes (Bits):       2049168
   Registers Total Power:            3.107615 mW

   SPM Leakage Power:               0.061081 mW
   SPM Read Dynamic Power:          11.103730 mW
   SPM Write Dynamic Power:         7.385230 mW
   SPM Total Power:                 18.550041 mW

   Cache Leakage Power:             0.000000 mW
   Cache Read Dynamic Power:        0.000000 mW
   Cache Write Dynamic Power:       0.000000 mW
   Cache Total Power:               0.000000 mW

   Accelerator Power:               14.400490 mW
   Accelerator Power (SPM):         32.950531 mW
   Accelerator Power (Cache):       14.400490 mW

   ========= Area Analysis =======================
   FU Area:                         176023.796875 um^2 (0.176024 mm^2)
   Register Area:                   1760.064941 um^2 (0.001760 mm^2)
   SPM Area:                        2165.394891 um^2 (0.002165 mm^2)
   Cache Area:                      0.000000 um^2 (0.000000 mm^2)

   Accelerator Area:                177783.859375 um^2 (0.177784 mm^2)
   Accelerator Area (SPM):          179949.254266 um^2 (0.179949 mm^2)
   Accelerator Area (Cache):        177783.859375 um^2 (0.177784 mm^2)

   ========= SPM Resizing  =======================
   SPM Optimized Leakage Power:     0.005964 mW
   SPM Opt Area:                    422.108128 um^2

3768298750: global: Timer #0 started at tick 3768298750
3768641875: global: Timer #2 started at tick 3768641875
3768902500: global: Timer #2 stopped at tick 3768902500. Duration: 260625
3769726250: global: DAG ID = 0
3769745625: global: Node ID = 0
3769763750: global: Node deadline difference = -232
3769825000: global: Predicted memory time / byte = 0 us/byte
3769843125: global: Predicted memory time = 0 us
3769861250: global: Predicted memory time / byte = 0 us/byte
3769879375: global: Predicted memory time = 0 us
3769897500: global: Predicted memory time / byte = 0 us/byte
3769959375: global: Predicted memory time = 0 us
3769977500: global: Predicted memory time / byte = 0 us/byte
3769995625: global: Predicted memory time = 0 us
3771268750: system.acctest.grayscale0_dma: SRC:0x0000000027004224, DST:0x0000000025000020, LEN:49152
********************************************************************************
system.acctest.elem_matrix0.compute
   ========= Performance Analysis =============
   Setup Time:                      5.042282seconds
   Simulation Time:                 297.046902seconds
   System Clock:                    1.000000GHz
   Transistor Latency:              1ns
   Runtime:                         10932 cycles
   Runtime:                         10.932000 us
   Stalls:                          0 cycles
   Executed Nodes:                  10931 cycles

********************************************************************************
   ========= Performance Analysis =================
   Setup Time:                      5042282205.000000ns
   Simulation Time:                 297046902191.000000ns
   System Clock:                    1.000000GHz
   Transistor Latency:              0ns
   Runtime:                         10932 cycles
   Runtime:                         0.000001 seconds
   Stalls:                          0 cycles
       Load Only:                   0 cycles
       Store Only:                  0 cycles
       Compute Only:                0 cycles
       Compute & Store:             0 cycles
       Load & Store:                0 cycles
       Load & Compute:              0 cycles
       Load & Compute & Store:      0 cycles
   Executed Nodes:                  10931 cycles
       Load Only:                   0 cycles
       Store Only:                  5 cycles
       Compute Only:                1 cycles
       Compute & Store:             21 cycles
       Load & Store:                0 cycles
       Load & Compute:              7 cycles
       Load & Compute & Store:      10897 cycles

   ========= Runtime FU's ========= (Max | Avg) ===
   Counter FU's:                      32 | 0.046838
   Integer Add/Sub FU's:               0 | 0.000000
   Integer Mul/Div FU's:               0 | 0.000000
   Integer Shifter FU's:               0 | 0.000000
   Integer Bitwise FU's:               1 | 0.000091
   Floating Point Float Add/Sub:      34 | 0.044252
   Floating Point Double Add/Sub:      0 | 0.000000
   Floating Point Float Mul/Div:       0 | 0.000000
   Floating Point Double Mul/Div:      0 | 0.000000
   0 Cycle Compare FU's:             102 | 0.046974
   GEP Instruction FU's:              96 | 0.046835
   Type Conversion FU's:               7 | 0.006782

   ========= Static FU's ==========================
   Counter FU's:                    0
   Integer Add/Sub FU's:            0
   Integer Mul/Div FU's:            0
   Integer Shifter FU's:            0
   Integer Bitwise FU's:            0
   Floating Point Float Add/Sub:    0
   Floating Point Double Add/Sub:   0
   Floating Point Float Mul/Div:    0
   Floating Point Double Mul/Div:   0
   0 Cycle Compare FU's:            0
   GEP Instruction FU's:            0
   Type Conversion FU's:            0
   Other:                           0

   ========= Pipeline Register Usage =============
   Total Number of Registers:       5641
   Max Register Usage Per Cycle:    138
   Avg Register Usage Per Cycle:    12.130992
   Avg Register Size (Bytes):       5.980606

   ========= Memory Configuration =================
   Cache Bus Ports:                 0
   Shared Cache Size:               0kB
   Local Bus Ports:                 0
   Private SPM Size:                256kB
   Private Read Ports:              0
   Private Write Ports:             0
   Private Read Bus Width:          64
   Private Write Bus Width:         64
       Memory Reads:                0
       Memory Writes:               0
   ========= Power Analysis ======================
   FU Leakage Power:                0.519269 mW 
   FU Dynamic Power:                0.154621 mW 
   FU Total Power:                  0.673890 mW 

   Registers Leakage Power:          0.005281 mW 
   Registers Dynamic Power:          0.015326 mW 
       Register Reads (Bits):        132616
       Register Writes (Bits):       133658
   Registers Total Power:            0.020607 mW

   SPM Leakage Power:               0.104100 mW
   SPM Read Dynamic Power:          1.997266 mW
   SPM Write Dynamic Power:         0.953321 mW
   SPM Total Power:                 3.054688 mW

   Cache Leakage Power:             0.000000 mW
   Cache Read Dynamic Power:        0.000000 mW
   Cache Write Dynamic Power:       0.000000 mW
   Cache Total Power:               0.000000 mW

   Accelerator Power:               0.694497 mW
   Accelerator Power (SPM):         3.749184 mW
   Accelerator Power (Cache):       0.694497 mW

   ========= Area Analysis =======================
   FU Area:                         70212.562500 um^2 (0.070213 mm^2)
   Register Area:                   429.271088 um^2 (0.000429 mm^2)
   SPM Area:                        2177.365505 um^2 (0.002177 mm^2)
   Cache Area:                      0.000000 um^2 (0.000000 mm^2)

   Accelerator Area:                70641.835938 um^2 (0.070642 mm^2)
   Accelerator Area (SPM):          72819.201442 um^2 (0.072819 mm^2)
   Accelerator Area (Cache):        70641.835938 um^2 (0.070642 mm^2)

   ========= SPM Resizing  =======================
   SPM Optimized Leakage Power:     0.004248 mW
   SPM Opt Area:                    178.524902 um^2

3775938000: system.acctest.isp0_dma: SRC:0x000000008207abc0, DST:0x0000000027000020, LEN:16900
3776128750: global: Timer #0 stopped at tick 3776128750. Duration: 7830000
3776143125: global: Number of accelerators running = 3
3776258125: global: Timer #0 started at tick 3776258125
3776543750: global: Timer #2 started at tick 3776543750
3776588750: global: Timer #2 stopped at tick 3776588750. Duration: 45000
3776721875: global: Timer #2 started at tick 3776721875
3777260000: global: Timer #2 stopped at tick 3777260000. Duration: 538125
3777623125: global: Timer #2 started at tick 3777623125
3777667500: global: Timer #2 stopped at tick 3777667500. Duration: 44375
3777793125: global: Timer #2 started at tick 3777793125
3777916250: global: Timer #2 stopped at tick 3777916250. Duration: 123125
3779347000: system.acctest.isp0_dma: Transfer completed in 3.409 us
3780829750: system.acctest.grayscale0_dma: Transfer completed in 9.561 us
3791504500: system.acctest.elem_matrix0_dma: SRC:0x0000000024020020, DST:0x0000000082220780, LEN:65536
3792013750: global: Timer #0 stopped at tick 3792013750. Duration: 15755625
3792028125: global: Number of accelerators running = 3
3792149375: global: Timer #0 started at tick 3792149375
3793015000: global: Timer #0 stopped at tick 3793015000. Duration: 865625
3793029375: global: Number of accelerators running = 3
3793156875: global: Timer #0 started at tick 3793156875
3794310625: global: Timer #0 stopped at tick 3794310625. Duration: 1153750
3794325000: global: Number of accelerators running = 3
3797894500: system.acctest.elem_matrix0_dma: Transfer completed in 6.39 us
3797978750: global: Timer #0 started at tick 3797978750
3798210625: global: DAG ID = 2
3798273125: global: Node ID = 0
3798344375: global: Node deadline difference = -3595
3798364375: global: Predicted memory time / byte = 0 us/byte
3798382500: global: Predicted memory time = 0 us
3798400625: global: Predicted memory time / byte = 0 us/byte
3798418750: global: Predicted memory time = 0 us
3798436875: global: Predicted memory time / byte = 0 us/byte
3798455000: global: Predicted memory time = 0 us
3798473125: global: Predicted memory time / byte = 0 us/byte
3798491250: global: Predicted memory time = 0 us
********************************************************************************
system.acctest.grayscale0.compute
   ========= Performance Analysis =============
   Setup Time:                      0.015081seconds
   Simulation Time:                 476.429462seconds
   System Clock:                    1.000000GHz
   Transistor Latency:              1ns
   Runtime:                         10263 cycles
   Runtime:                         10.263000 us
   Stalls:                          1 cycles
   Executed Nodes:                  10261 cycles

********************************************************************************
   ========= Performance Analysis =================
   Setup Time:                      15081255.000000ns
   Simulation Time:                 476429461584.000000ns
   System Clock:                    1.000000GHz
   Transistor Latency:              0ns
   Runtime:                         10263 cycles
   Runtime:                         0.000001 seconds
   Stalls:                          1 cycles
       Load Only:                   0 cycles
       Store Only:                  1 cycles
       Compute Only:                0 cycles
       Compute & Store:             0 cycles
       Load & Store:                0 cycles
       Load & Compute:              0 cycles
       Load & Compute & Store:      0 cycles
   Executed Nodes:                  10261 cycles
       Load Only:                   0 cycles
       Store Only:                  1 cycles
       Compute Only:                88 cycles
       Compute & Store:             344 cycles
       Load & Store:                0 cycles
       Load & Compute:              1981 cycles
       Load & Compute & Store:      7847 cycles

   ========= Runtime FU's ========= (Max | Avg) ===
   Counter FU's:                      24 | 0.199556
   Integer Add/Sub FU's:               0 | 0.000000
   Integer Mul/Div FU's:               8 | 0.199552
   Integer Shifter FU's:               0 | 0.000000
   Integer Bitwise FU's:               1 | 0.000097
   Floating Point Float Add/Sub:      49 | 0.114264
   Floating Point Double Add/Sub:      0 | 0.000000
   Floating Point Float Mul/Div:      42 | 0.114129
   Floating Point Double Mul/Div:      0 | 0.000000
   0 Cycle Compare FU's:               9 | 0.066626
   GEP Instruction FU's:              36 | 0.177452
   Type Conversion FU's:              76 | 0.401969

   ========= Static FU's ==========================
   Counter FU's:                    0
   Integer Add/Sub FU's:            0
   Integer Mul/Div FU's:            0
   Integer Shifter FU's:            0
   Integer Bitwise FU's:            0
   Floating Point Float Add/Sub:    0
   Floating Point Double Add/Sub:   0
   Floating Point Float Mul/Div:    0
   Floating Point Double Mul/Div:   0
   0 Cycle Compare FU's:            0
   GEP Instruction FU's:            0
   Type Conversion FU's:            0
   Other:                           0

   ========= Pipeline Register Usage =============
   Total Number of Registers:       235
   Max Register Usage Per Cycle:    90
   Avg Register Usage Per Cycle:    33.924291
   Avg Register Size (Bytes):       5.841147

   ========= Memory Configuration =================
   Cache Bus Ports:                 0
   Shared Cache Size:               0kB
   Local Bus Ports:                 0
   Private SPM Size:                176kB
   Private Read Ports:              0
   Private Write Ports:             0
   Private Read Bus Width:          64
   Private Write Bus Width:         64
       Memory Reads:                0
       Memory Writes:               0
   ========= Power Analysis ======================
   FU Leakage Power:                1.178269 mW 
   FU Dynamic Power:                0.617392 mW 
   FU Total Power:                  1.795662 mW 

   Registers Leakage Power:          0.014185 mW 
   Registers Dynamic Power:          0.101057 mW 
       Register Reads (Bits):        348165
       Register Writes (Bits):       348168
   Registers Total Power:            0.115242 mW

   SPM Leakage Power:               0.089881 mW
   SPM Read Dynamic Power:          6.997296 mW
   SPM Write Dynamic Power:         2.062375 mW
   SPM Total Power:                 9.149552 mW

   Cache Leakage Power:             0.000000 mW
   Cache Read Dynamic Power:        0.000000 mW
   Cache Write Dynamic Power:       0.000000 mW
   Cache Total Power:               0.000000 mW

   Accelerator Power:               1.910904 mW
   Accelerator Power (SPM):         11.060456 mW
   Accelerator Power (Cache):       1.910904 mW

   ========= Area Analysis =======================
   FU Area:                         143348.187500 um^2 (0.143348 mm^2)
   Register Area:                   1152.968140 um^2 (0.001153 mm^2)
   SPM Area:                        3573.642862 um^2 (0.003574 mm^2)
   Cache Area:                      0.000000 um^2 (0.000000 mm^2)

   Accelerator Area:                144501.156250 um^2 (0.144501 mm^2)
   Accelerator Area (SPM):          148074.799112 um^2 (0.148075 mm^2)
   Accelerator Area (Cache):        144501.156250 um^2 (0.144501 mm^2)

   ========= SPM Resizing  =======================
   SPM Optimized Leakage Power:     0.003633 mW
   SPM Opt Area:                    364.024374 um^2

3812581625: system.acctest.elem_matrix0_dma: SRC:0x0000000082190780, DST:0x0000000024000020, LEN:65536
3812835625: global: Timer #0 stopped at tick 3812835625. Duration: 14856875
3812850000: global: Number of accelerators running = 3
3812963750: global: Timer #0 started at tick 3812963750
3813141875: global: Timer #2 started at tick 3813141875
3813187500: global: Timer #2 stopped at tick 3813187500. Duration: 45625
3824624625: system.acctest.elem_matrix0_dma: Transfer completed in 12.043 us
3826965875: system.acctest.grayscale0_dma: SRC:0x000000002500c020, DST:0x0000000082068e00, LEN:65536
********************************************************************************
system.acctest.isp0.compute
   ========= Performance Analysis =============
   Setup Time:                      0.667039seconds
   Simulation Time:                 1176.434753seconds
   System Clock:                    1.000000GHz
   Transistor Latency:              1ns
   Runtime:                         34882 cycles
   Runtime:                         34.882000 us
   Stalls:                          1 cycles
   Executed Nodes:                  34880 cycles

********************************************************************************
   ========= Performance Analysis =================
   Setup Time:                      667038923.000000ns
   Simulation Time:                 1176434752790.000000ns
   System Clock:                    1.000000GHz
   Transistor Latency:              0ns
   Runtime:                         34882 cycles
   Runtime:                         0.000003 seconds
   Stalls:                          1 cycles
       Load Only:                   0 cycles
       Store Only:                  1 cycles
       Compute Only:                0 cycles
       Compute & Store:             0 cycles
       Load & Store:                0 cycles
       Load & Compute:              0 cycles
       Load & Compute & Store:      0 cycles
   Executed Nodes:                  34880 cycles
       Load Only:                   0 cycles
       Store Only:                  1 cycles
       Compute Only:                3453 cycles
       Compute & Store:             19014 cycles
       Load & Store:                0 cycles
       Load & Compute:              2467 cycles
       Load & Compute & Store:      9945 cycles

   ========= Runtime FU's ========= (Max | Avg) ===
   Counter FU's:                      10 | 0.118075
   Integer Add/Sub FU's:              76 | 0.082082
   Integer Mul/Div FU's:              11 | 0.043888
   Integer Shifter FU's:              42 | 0.055974
   Integer Bitwise FU's:               4 | 0.059443
   Floating Point Float Add/Sub:      53 | 0.116839
   Floating Point Double Add/Sub:      0 | 0.000000
   Floating Point Float Mul/Div:      76 | 0.625626
   Floating Point Double Mul/Div:      0 | 0.000000
   0 Cycle Compare FU's:              85 | 0.664984
   GEP Instruction FU's:              33 | 0.117424
   Type Conversion FU's:             110 | 0.379700

   ========= Static FU's ==========================
   Counter FU's:                    0
   Integer Add/Sub FU's:            0
   Integer Mul/Div FU's:            0
   Integer Shifter FU's:            0
   Integer Bitwise FU's:            0
   Floating Point Float Add/Sub:    0
   Floating Point Double Add/Sub:   0
   Floating Point Float Mul/Div:    0
   Floating Point Double Mul/Div:   0
   0 Cycle Compare FU's:            0
   GEP Instruction FU's:            0
   Type Conversion FU's:            0
   Other:                           0

   ========= Pipeline Register Usage =============
   Total Number of Registers:       1620
   Max Register Usage Per Cycle:    151
   Avg Register Usage Per Cycle:    58.744711
   Avg Register Size (Bytes):       5.073357

   ========= Memory Configuration =================
   Cache Bus Ports:                 0
   Shared Cache Size:               0kB
   Local Bus Ports:                 0
   Private SPM Size:                112kB
   Private Read Ports:              0
   Private Write Ports:             0
   Private Read Bus Width:          64
   Private Write Bus Width:         64
       Memory Reads:                0
       Memory Writes:               0
   ========= Power Analysis ======================
   FU Leakage Power:                1.637787 mW 
   FU Dynamic Power:                9.655087 mW 
   FU Total Power:                  11.292874 mW 

   Registers Leakage Power:          0.021654 mW 
   Registers Dynamic Power:          3.085961 mW 
       Register Reads (Bits):        2049133
       Register Writes (Bits):       2049168
   Registers Total Power:            3.107615 mW

   SPM Leakage Power:               0.061081 mW
   SPM Read Dynamic Power:          15.102444 mW
   SPM Write Dynamic Power:         10.618341 mW
   SPM Total Power:                 25.781867 mW

   Cache Leakage Power:             0.000000 mW
   Cache Read Dynamic Power:        0.000000 mW
   Cache Write Dynamic Power:       0.000000 mW
   Cache Total Power:               0.000000 mW

   Accelerator Power:               14.400490 mW
   Accelerator Power (SPM):         40.182357 mW
   Accelerator Power (Cache):       14.400490 mW

   ========= Area Analysis =======================
   FU Area:                         176023.796875 um^2 (0.176024 mm^2)
   Register Area:                   1760.064941 um^2 (0.001760 mm^2)
   SPM Area:                        2165.394891 um^2 (0.002165 mm^2)
   Cache Area:                      0.000000 um^2 (0.000000 mm^2)

   Accelerator Area:                177783.859375 um^2 (0.177784 mm^2)
   Accelerator Area (SPM):          179949.254266 um^2 (0.179949 mm^2)
   Accelerator Area (Cache):        177783.859375 um^2 (0.177784 mm^2)

   ========= SPM Resizing  =======================
   SPM Optimized Leakage Power:     0.005964 mW
   SPM Opt Area:                    422.108128 um^2

3828700000: system.acctest.convolution0_dma: SRC:0x000000002500c020, DST:0x0000000022000020, LEN:65536
3829158750: global: Timer #0 stopped at tick 3829158750. Duration: 16195000
3829173125: global: Number of accelerators running = 4
3829333750: global: Timer #0 started at tick 3829333750
3830962500: global: Timer #0 stopped at tick 3830962500. Duration: 1628750
3830976875: global: Number of accelerators running = 4
3831093125: global: Timer #0 started at tick 3831093125
3831450000: global: Timer #2 started at tick 3831450000
3831495000: global: Timer #2 stopped at tick 3831495000. Duration: 45000
3837862875: system.acctest.grayscale0_dma: Transfer completed in 10.897 us
********************************************************************************
system.acctest.elem_matrix0.compute
   ========= Performance Analysis =============
   Setup Time:                      13.762046seconds
   Simulation Time:                 227.341064seconds
   System Clock:                    1.000000GHz
   Transistor Latency:              1ns
   Runtime:                         10932 cycles
   Runtime:                         10.932000 us
   Stalls:                          1 cycles
   Executed Nodes:                  10930 cycles

********************************************************************************
   ========= Performance Analysis =================
   Setup Time:                      13762045743.000000ns
   Simulation Time:                 227341064323.000000ns
   System Clock:                    1.000000GHz
   Transistor Latency:              0ns
   Runtime:                         10932 cycles
   Runtime:                         0.000001 seconds
   Stalls:                          1 cycles
       Load Only:                   0 cycles
       Store Only:                  1 cycles
       Compute Only:                0 cycles
       Compute & Store:             0 cycles
       Load & Store:                0 cycles
       Load & Compute:              0 cycles
       Load & Compute & Store:      0 cycles
   Executed Nodes:                  10930 cycles
       Load Only:                   0 cycles
       Store Only:                  4 cycles
       Compute Only:                1 cycles
       Compute & Store:             21 cycles
       Load & Store:                0 cycles
       Load & Compute:              6 cycles
       Load & Compute & Store:      10898 cycles

   ========= Runtime FU's ========= (Max | Avg) ===
   Counter FU's:                      32 | 0.046838
   Integer Add/Sub FU's:               0 | 0.000000
   Integer Mul/Div FU's:               0 | 0.000000
   Integer Shifter FU's:               0 | 0.000000
   Integer Bitwise FU's:               1 | 0.000091
   Floating Point Float Add/Sub:       0 | 0.000000
   Floating Point Double Add/Sub:      0 | 0.000000
   Floating Point Float Mul/Div:      34 | 0.044252
   Floating Point Double Mul/Div:      0 | 0.000000
   0 Cycle Compare FU's:             102 | 0.046945
   GEP Instruction FU's:              96 | 0.046835
   Type Conversion FU's:               7 | 0.006782

   ========= Static FU's ==========================
   Counter FU's:                    0
   Integer Add/Sub FU's:            0
   Integer Mul/Div FU's:            0
   Integer Shifter FU's:            0
   Integer Bitwise FU's:            0
   Floating Point Float Add/Sub:    0
   Floating Point Double Add/Sub:   0
   Floating Point Float Mul/Div:    0
   Floating Point Double Mul/Div:   0
   0 Cycle Compare FU's:            0
   GEP Instruction FU's:            0
   Type Conversion FU's:            0
   Other:                           0

   ========= Pipeline Register Usage =============
   Total Number of Registers:       5641
   Max Register Usage Per Cycle:    137
   Avg Register Usage Per Cycle:    12.130992
   Avg Register Size (Bytes):       5.980606

   ========= Memory Configuration =================
   Cache Bus Ports:                 0
   Shared Cache Size:               0kB
   Local Bus Ports:                 0
   Private SPM Size:                256kB
   Private Read Ports:              0
   Private Write Ports:             0
   Private Read Bus Width:          64
   Private Write Bus Width:         64
       Memory Reads:                0
       Memory Writes:               0
   ========= Power Analysis ======================
   FU Leakage Power:                0.045377 mW 
   FU Dynamic Power:                0.142576 mW 
   FU Total Power:                  0.187953 mW 

   Registers Leakage Power:          0.005281 mW 
   Registers Dynamic Power:          0.015326 mW 
       Register Reads (Bits):        132616
       Register Writes (Bits):       133658
   Registers Total Power:            0.020607 mW

   SPM Leakage Power:               0.104100 mW
   SPM Read Dynamic Power:          2.785289 mW
   SPM Write Dynamic Power:         2.044305 mW
   SPM Total Power:                 4.933694 mW

   Cache Leakage Power:             0.000000 mW
   Cache Read Dynamic Power:        0.000000 mW
   Cache Write Dynamic Power:       0.000000 mW
   Cache Total Power:               0.000000 mW

   Accelerator Power:               0.208559 mW
   Accelerator Power (SPM):         5.142254 mW
   Accelerator Power (Cache):       0.208559 mW

   ========= Area Analysis =======================
   FU Area:                         5472.068359 um^2 (0.005472 mm^2)
   Register Area:                   429.271088 um^2 (0.000429 mm^2)
   SPM Area:                        2177.365505 um^2 (0.002177 mm^2)
   Cache Area:                      0.000000 um^2 (0.000000 mm^2)

   Accelerator Area:                5901.339355 um^2 (0.005901 mm^2)
   Accelerator Area (SPM):          8078.704860 um^2 (0.008079 mm^2)
   Accelerator Area (Cache):        5901.339355 um^2 (0.005901 mm^2)

   ========= SPM Resizing  =======================
   SPM Optimized Leakage Power:     0.004248 mW
   SPM Opt Area:                    178.524902 um^2

3841814000: system.acctest.isp0_dma: SRC:0x0000000027010224, DST:0x000000008207ee00, LEN:49152
3842226875: global: Timer #0 stopped at tick 3842226875. Duration: 11133750
3842241250: global: Number of accelerators running = 4
3842358125: global: Timer #0 started at tick 3842358125
3842422000: system.acctest.convolution0_dma: Transfer completed in 13.722 us
3842536250: global: DAG ID = 0
3842550000: global: Node ID = 1
3842569375: global: Node deadline difference = -196
3842581875: global: Predicted memory time / byte = 0 us/byte
3842594375: global: Predicted memory time = 0 us
3842606875: global: Predicted memory time / byte = 0 us/byte
3842619375: global: Predicted memory time = 0 us
3842631875: global: Predicted memory time / byte = 0 us/byte
3842644375: global: Predicted memory time = 0 us
3842656875: global: Predicted memory time / byte = 0 us/byte
3842669375: global: Predicted memory time = 0 us
3847564000: system.acctest.isp0_dma: Transfer completed in 5.75 us
3853573750: system.acctest.grayscale0_dma: SRC:0x000000008207ee00, DST:0x0000000025000020, LEN:49152
3853788125: global: Timer #0 stopped at tick 3853788125. Duration: 11430000
3853802500: global: Number of accelerators running = 4
3853918125: global: Timer #0 started at tick 3853918125
3854276875: global: Timer #2 started at tick 3854276875
3854345625: global: Timer #2 stopped at tick 3854345625. Duration: 68750
3862511750: system.acctest.grayscale0_dma: Transfer completed in 8.938 us
3867656625: system.acctest.elem_matrix0_dma: SRC:0x0000000024010020, DST:0x0000000082230780, LEN:65536
3868030625: global: Timer #0 stopped at tick 3868030625. Duration: 14112500
3868045000: global: Number of accelerators running = 4
3868169375: global: Timer #0 started at tick 3868169375
3869469000: system.acctest.convolution0_dma: SRC:0x0000000082018780, DST:0x0000000022030020, LEN:100
3869632000: system.acctest.convolution0_dma: Transfer completed in 0.163 us
3869729375: global: Timer #0 stopped at tick 3869729375. Duration: 1560000
3869743750: global: Number of accelerators running = 4
3869863750: global: Timer #0 started at tick 3869863750
3870040625: global: DAG ID = 1
3870054375: global: Node ID = 0
3870073750: global: Node deadline difference = -13862
3870086250: global: Predicted memory time / byte = 0 us/byte
3870098750: global: Predicted memory time = 0 us
3870111250: global: Predicted memory time / byte = 0 us/byte
3870123750: global: Predicted memory time = 0 us
3870136250: global: Predicted memory time / byte = 0 us/byte
3870148750: global: Predicted memory time = 0 us
3870161250: global: Predicted memory time / byte = 0 us/byte
3870173750: global: Predicted memory time = 0 us
3870287500: global: Timer #0 stopped at tick 3870287500. Duration: 423750
3870301875: global: Number of accelerators running = 3
3870418125: global: Timer #0 started at tick 3870418125
3871121250: global: Timer #0 stopped at tick 3871121250. Duration: 703125
3871135625: global: Number of accelerators running = 3
3871251875: global: Timer #0 started at tick 3871251875
3872634375: global: Timer #0 stopped at tick 3872634375. Duration: 1382500
3872648750: global: Number of accelerators running = 3
3873948625: system.acctest.elem_matrix0_dma: Transfer completed in 6.292 us
3874033125: global: Timer #0 started at tick 3874033125
3874205625: global: DAG ID = 2
3874219375: global: Node ID = 1
3874238750: global: Node deadline difference = -3576
3874251250: global: Predicted memory time / byte = 0 us/byte
3874263750: global: Predicted memory time = 0 us
3874276250: global: Predicted memory time / byte = 0 us/byte
3874288750: global: Predicted memory time = 0 us
3874301250: global: Predicted memory time / byte = 0 us/byte
3874313750: global: Predicted memory time = 0 us
3874326250: global: Predicted memory time / byte = 0 us/byte
3874338750: global: Predicted memory time = 0 us
********************************************************************************
system.acctest.grayscale0.compute
   ========= Performance Analysis =============
   Setup Time:                      0.009487seconds
   Simulation Time:                 227.421589seconds
   System Clock:                    1.000000GHz
   Transistor Latency:              1ns
   Runtime:                         10263 cycles
   Runtime:                         10.263000 us
   Stalls:                          1 cycles
   Executed Nodes:                  10261 cycles

********************************************************************************
   ========= Performance Analysis =================
   Setup Time:                      9486717.000000ns
   Simulation Time:                 227421588872.000000ns
   System Clock:                    1.000000GHz
   Transistor Latency:              0ns
   Runtime:                         10263 cycles
   Runtime:                         0.000001 seconds
   Stalls:                          1 cycles
       Load Only:                   0 cycles
       Store Only:                  1 cycles
       Compute Only:                0 cycles
       Compute & Store:             0 cycles
       Load & Store:                0 cycles
       Load & Compute:              0 cycles
       Load & Compute & Store:      0 cycles
   Executed Nodes:                  10261 cycles
       Load Only:                   0 cycles
       Store Only:                  1 cycles
       Compute Only:                88 cycles
       Compute & Store:             344 cycles
       Load & Store:                0 cycles
       Load & Compute:              1981 cycles
       Load & Compute & Store:      7847 cycles

   ========= Runtime FU's ========= (Max | Avg) ===
   Counter FU's:                      24 | 0.199556
   Integer Add/Sub FU's:               0 | 0.000000
   Integer Mul/Div FU's:               8 | 0.199552
   Integer Shifter FU's:               0 | 0.000000
   Integer Bitwise FU's:               1 | 0.000097
   Floating Point Float Add/Sub:      49 | 0.114264
   Floating Point Double Add/Sub:      0 | 0.000000
   Floating Point Float Mul/Div:      42 | 0.114129
   Floating Point Double Mul/Div:      0 | 0.000000
   0 Cycle Compare FU's:               9 | 0.066626
   GEP Instruction FU's:              36 | 0.177452
   Type Conversion FU's:              76 | 0.401969

   ========= Static FU's ==========================
   Counter FU's:                    0
   Integer Add/Sub FU's:            0
   Integer Mul/Div FU's:            0
   Integer Shifter FU's:            0
   Integer Bitwise FU's:            0
   Floating Point Float Add/Sub:    0
   Floating Point Double Add/Sub:   0
   Floating Point Float Mul/Div:    0
   Floating Point Double Mul/Div:   0
   0 Cycle Compare FU's:            0
   GEP Instruction FU's:            0
   Type Conversion FU's:            0
   Other:                           0

   ========= Pipeline Register Usage =============
   Total Number of Registers:       235
   Max Register Usage Per Cycle:    90
   Avg Register Usage Per Cycle:    33.924291
   Avg Register Size (Bytes):       5.841147

   ========= Memory Configuration =================
   Cache Bus Ports:                 0
   Shared Cache Size:               0kB
   Local Bus Ports:                 0
   Private SPM Size:                176kB
   Private Read Ports:              0
   Private Write Ports:             0
   Private Read Bus Width:          64
   Private Write Bus Width:         64
       Memory Reads:                0
       Memory Writes:               0
   ========= Power Analysis ======================
   FU Leakage Power:                1.178269 mW 
   FU Dynamic Power:                0.617392 mW 
   FU Total Power:                  1.795662 mW 

   Registers Leakage Power:          0.014185 mW 
   Registers Dynamic Power:          0.101057 mW 
       Register Reads (Bits):        348165
       Register Writes (Bits):       348168
   Registers Total Power:            0.115242 mW

   SPM Leakage Power:               0.089881 mW
   SPM Read Dynamic Power:          10.232207 mW
   SPM Write Dynamic Power:         5.980668 mW
   SPM Total Power:                 16.302756 mW

   Cache Leakage Power:             0.000000 mW
   Cache Read Dynamic Power:        0.000000 mW
   Cache Write Dynamic Power:       0.000000 mW
   Cache Total Power:               0.000000 mW

   Accelerator Power:               1.910904 mW
   Accelerator Power (SPM):         18.213660 mW
   Accelerator Power (Cache):       1.910904 mW

   ========= Area Analysis =======================
   FU Area:                         143348.187500 um^2 (0.143348 mm^2)
   Register Area:                   1152.968140 um^2 (0.001153 mm^2)
   SPM Area:                        3573.642862 um^2 (0.003574 mm^2)
   Cache Area:                      0.000000 um^2 (0.000000 mm^2)

   Accelerator Area:                144501.156250 um^2 (0.144501 mm^2)
   Accelerator Area (SPM):          148074.799112 um^2 (0.148075 mm^2)
   Accelerator Area (Cache):        144501.156250 um^2 (0.144501 mm^2)

   ========= SPM Resizing  =======================
   SPM Optimized Leakage Power:     0.003633 mW
   SPM Opt Area:                    364.024374 um^2

3887935875: system.acctest.elem_matrix0_dma: SRC:0x0000000082220780, DST:0x0000000024000020, LEN:65536
3888154375: global: Timer #0 stopped at tick 3888154375. Duration: 14121250
3888168750: global: Number of accelerators running = 3
3888283750: global: Timer #0 started at tick 3888283750
3888533750: global: Timer #2 started at tick 3888533750
3888570000: global: Timer #2 stopped at tick 3888570000. Duration: 36250
3888685625: global: Timer #2 started at tick 3888685625
3888821875: global: Timer #2 stopped at tick 3888821875. Duration: 136250
3899967875: system.acctest.elem_matrix0_dma: Transfer completed in 12.032 us
3902069500: system.acctest.grayscale0_dma: SRC:0x000000002501c020, DST:0x000000008208af80, LEN:65536
3902444375: global: Timer #0 stopped at tick 3902444375. Duration: 14160625
3902458750: global: Number of accelerators running = 3
3902574375: global: Timer #0 started at tick 3902574375
3908813500: system.acctest.grayscale0_dma: Transfer completed in 6.744 us
3916365875: system.acctest.elem_matrix0_dma: SRC:0x00000000821b0780, DST:0x0000000024010020, LEN:65536
3916613750: global: Timer #0 stopped at tick 3916613750. Duration: 14039375
3916628125: global: Number of accelerators running = 3
3916751250: global: Timer #0 started at tick 3916751250
3916925625: global: DAG ID = 1
3916939375: global: Node ID = 1
3916958750: global: Node deadline difference = -13853
3916971250: global: Predicted memory time / byte = 0 us/byte
3916983750: global: Predicted memory time = 0 us
3916996250: global: Predicted memory time / byte = 0 us/byte
3917008750: global: Predicted memory time = 0 us
3917021250: global: Predicted memory time / byte = 0 us/byte
3917033750: global: Predicted memory time = 0 us
3917046250: global: Predicted memory time / byte = 0 us/byte
3917058750: global: Predicted memory time = 0 us
3917191875: global: Timer #0 stopped at tick 3917191875. Duration: 440625
3917206250: global: Number of accelerators running = 2
3928308875: system.acctest.elem_matrix0_dma: Transfer completed in 11.943 us
3928393750: global: Timer #0 started at tick 3928393750
3929759375: global: Timer #0 stopped at tick 3929759375. Duration: 1365625
3929773750: global: Number of accelerators running = 2
********************************************************************************
system.acctest.elem_matrix0.compute
   ========= Performance Analysis =============
   Setup Time:                      12.475532seconds
   Simulation Time:                 226.831473seconds
   System Clock:                    1.000000GHz
   Transistor Latency:              1ns
   Runtime:                         10932 cycles
   Runtime:                         10.932000 us
   Stalls:                          1 cycles
   Executed Nodes:                  10930 cycles

********************************************************************************
   ========= Performance Analysis =================
   Setup Time:                      12475531832.000000ns
   Simulation Time:                 226831473247.000000ns
   System Clock:                    1.000000GHz
   Transistor Latency:              0ns
   Runtime:                         10932 cycles
   Runtime:                         0.000001 seconds
   Stalls:                          1 cycles
       Load Only:                   0 cycles
       Store Only:                  1 cycles
       Compute Only:                0 cycles
       Compute & Store:             0 cycles
       Load & Store:                0 cycles
       Load & Compute:              0 cycles
       Load & Compute & Store:      0 cycles
   Executed Nodes:                  10930 cycles
       Load Only:                   0 cycles
       Store Only:                  4 cycles
       Compute Only:                1 cycles
       Compute & Store:             21 cycles
       Load & Store:                0 cycles
       Load & Compute:              6 cycles
       Load & Compute & Store:      10898 cycles

   ========= Runtime FU's ========= (Max | Avg) ===
   Counter FU's:                      32 | 0.046838
   Integer Add/Sub FU's:               0 | 0.000000
   Integer Mul/Div FU's:               0 | 0.000000
   Integer Shifter FU's:               0 | 0.000000
   Integer Bitwise FU's:               1 | 0.000091
   Floating Point Float Add/Sub:       0 | 0.000000
   Floating Point Double Add/Sub:      0 | 0.000000
   Floating Point Float Mul/Div:      34 | 0.044252
   Floating Point Double Mul/Div:      0 | 0.000000
   0 Cycle Compare FU's:             102 | 0.046945
   GEP Instruction FU's:              96 | 0.046835
   Type Conversion FU's:               7 | 0.006782

   ========= Static FU's ==========================
   Counter FU's:                    0
   Integer Add/Sub FU's:            0
   Integer Mul/Div FU's:            0
   Integer Shifter FU's:            0
   Integer Bitwise FU's:            0
   Floating Point Float Add/Sub:    0
   Floating Point Double Add/Sub:   0
   Floating Point Float Mul/Div:    0
   Floating Point Double Mul/Div:   0
   0 Cycle Compare FU's:            0
   GEP Instruction FU's:            0
   Type Conversion FU's:            0
   Other:                           0

   ========= Pipeline Register Usage =============
   Total Number of Registers:       5641
   Max Register Usage Per Cycle:    137
   Avg Register Usage Per Cycle:    12.130992
   Avg Register Size (Bytes):       5.980606

   ========= Memory Configuration =================
   Cache Bus Ports:                 0
   Shared Cache Size:               0kB
   Local Bus Ports:                 0
   Private SPM Size:                256kB
   Private Read Ports:              0
   Private Write Ports:             0
   Private Read Bus Width:          64
   Private Write Bus Width:         64
       Memory Reads:                0
       Memory Writes:               0
   ========= Power Analysis ======================
   FU Leakage Power:                0.045377 mW 
   FU Dynamic Power:                0.142576 mW 
   FU Total Power:                  0.187953 mW 

   Registers Leakage Power:          0.005281 mW 
   Registers Dynamic Power:          0.015326 mW 
       Register Reads (Bits):        132616
       Register Writes (Bits):       133658
   Registers Total Power:            0.020607 mW

   SPM Leakage Power:               0.104100 mW
   SPM Read Dynamic Power:          3.776796 mW
   SPM Write Dynamic Power:         2.457440 mW
   SPM Total Power:                 6.338336 mW

   Cache Leakage Power:             0.000000 mW
   Cache Read Dynamic Power:        0.000000 mW
   Cache Write Dynamic Power:       0.000000 mW
   Cache Total Power:               0.000000 mW

   Accelerator Power:               0.208559 mW
   Accelerator Power (SPM):         6.546896 mW
   Accelerator Power (Cache):       0.208559 mW

   ========= Area Analysis =======================
   FU Area:                         5472.068359 um^2 (0.005472 mm^2)
   Register Area:                   429.271088 um^2 (0.000429 mm^2)
   SPM Area:                        2177.365505 um^2 (0.002177 mm^2)
   Cache Area:                      0.000000 um^2 (0.000000 mm^2)

   Accelerator Area:                5901.339355 um^2 (0.005901 mm^2)
   Accelerator Area (SPM):          8078.704860 um^2 (0.008079 mm^2)
   Accelerator Area (Cache):        5901.339355 um^2 (0.005901 mm^2)

   ========= SPM Resizing  =======================
   SPM Optimized Leakage Power:     0.004248 mW
   SPM Opt Area:                    178.524902 um^2

3940550625: global: Timer #0 started at tick 3940550625
3940855000: global: Timer #2 started at tick 3940855000
3940913750: global: Timer #2 stopped at tick 3940913750. Duration: 58750
3954100875: system.acctest.elem_matrix0_dma: SRC:0x0000000024020020, DST:0x0000000082270780, LEN:65536
3954449375: global: Timer #0 stopped at tick 3954449375. Duration: 13898750
3954463750: global: Number of accelerators running = 2
3960454875: system.acctest.elem_matrix0_dma: Transfer completed in 6.354 us
3960528125: global: Timer #0 started at tick 3960528125
3960697500: global: DAG ID = 2
3960711250: global: Node ID = 5
3960730625: global: Node deadline difference = -3490
3960743125: global: Predicted memory time / byte = 0 us/byte
3960755625: global: Predicted memory time = 0 us
3960768125: global: Predicted memory time / byte = 0 us/byte
3960780625: global: Predicted memory time = 0 us
3960793125: global: Predicted memory time / byte = 0 us/byte
3960805625: global: Predicted memory time = 0 us
3960818125: global: Predicted memory time / byte = 0 us/byte
3960830625: global: Predicted memory time = 0 us
3974234500: system.acctest.elem_matrix0_dma: SRC:0x0000000082220780, DST:0x0000000024000020, LEN:65536
3974433750: global: Timer #0 stopped at tick 3974433750. Duration: 13905625
3974446875: global: Number of accelerators running = 2
3986234500: system.acctest.elem_matrix0_dma: Transfer completed in 12 us
3986308125: global: Timer #0 started at tick 3986308125
3999646625: system.acctest.elem_matrix0_dma: SRC:0x00000000821d0780, DST:0x0000000024010020, LEN:65536
3999868125: global: Timer #0 stopped at tick 3999868125. Duration: 13560000
3999882500: global: Number of accelerators running = 2
4011660625: system.acctest.elem_matrix0_dma: Transfer completed in 12.014 us
4011734375: global: Timer #0 started at tick 4011734375
4013074375: global: Timer #0 stopped at tick 4013074375. Duration: 1340000
4013088750: global: Number of accelerators running = 2
********************************************************************************
system.acctest.elem_matrix0.compute
   ========= Performance Analysis =============
   Setup Time:                      9.268315seconds
   Simulation Time:                 198.442263seconds
   System Clock:                    1.000000GHz
   Transistor Latency:              1ns
   Runtime:                         10932 cycles
   Runtime:                         10.932000 us
   Stalls:                          1 cycles
   Executed Nodes:                  10930 cycles

********************************************************************************
   ========= Performance Analysis =================
   Setup Time:                      9268315388.000000ns
   Simulation Time:                 198442262583.000000ns
   System Clock:                    1.000000GHz
   Transistor Latency:              0ns
   Runtime:                         10932 cycles
   Runtime:                         0.000001 seconds
   Stalls:                          1 cycles
       Load Only:                   0 cycles
       Store Only:                  1 cycles
       Compute Only:                0 cycles
       Compute & Store:             0 cycles
       Load & Store:                0 cycles
       Load & Compute:              0 cycles
       Load & Compute & Store:      0 cycles
   Executed Nodes:                  10930 cycles
       Load Only:                   0 cycles
       Store Only:                  4 cycles
       Compute Only:                1 cycles
       Compute & Store:             21 cycles
       Load & Store:                0 cycles
       Load & Compute:              6 cycles
       Load & Compute & Store:      10898 cycles

   ========= Runtime FU's ========= (Max | Avg) ===
   Counter FU's:                      32 | 0.046838
   Integer Add/Sub FU's:               0 | 0.000000
   Integer Mul/Div FU's:               0 | 0.000000
   Integer Shifter FU's:               0 | 0.000000
   Integer Bitwise FU's:               1 | 0.000091
   Floating Point Float Add/Sub:       0 | 0.000000
   Floating Point Double Add/Sub:      0 | 0.000000
   Floating Point Float Mul/Div:      34 | 0.044252
   Floating Point Double Mul/Div:      0 | 0.000000
   0 Cycle Compare FU's:             102 | 0.046945
   GEP Instruction FU's:              96 | 0.046835
   Type Conversion FU's:               7 | 0.006782

   ========= Static FU's ==========================
   Counter FU's:                    0
   Integer Add/Sub FU's:            0
   Integer Mul/Div FU's:            0
   Integer Shifter FU's:            0
   Integer Bitwise FU's:            0
   Floating Point Float Add/Sub:    0
   Floating Point Double Add/Sub:   0
   Floating Point Float Mul/Div:    0
   Floating Point Double Mul/Div:   0
   0 Cycle Compare FU's:            0
   GEP Instruction FU's:            0
   Type Conversion FU's:            0
   Other:                           0

   ========= Pipeline Register Usage =============
   Total Number of Registers:       5641
   Max Register Usage Per Cycle:    137
   Avg Register Usage Per Cycle:    12.130992
   Avg Register Size (Bytes):       5.980606

   ========= Memory Configuration =================
   Cache Bus Ports:                 0
   Shared Cache Size:               0kB
   Local Bus Ports:                 0
   Private SPM Size:                256kB
   Private Read Ports:              0
   Private Write Ports:             0
   Private Read Bus Width:          64
   Private Write Bus Width:         64
       Memory Reads:                0
       Memory Writes:               0
   ========= Power Analysis ======================
   FU Leakage Power:                0.045377 mW 
   FU Dynamic Power:                0.142576 mW 
   FU Total Power:                  0.187953 mW 

   Registers Leakage Power:          0.005281 mW 
   Registers Dynamic Power:          0.015326 mW 
       Register Reads (Bits):        132616
       Register Writes (Bits):       133658
   Registers Total Power:            0.020607 mW

   SPM Leakage Power:               0.104100 mW
   SPM Read Dynamic Power:          4.579344 mW
   SPM Write Dynamic Power:         2.880682 mW
   SPM Total Power:                 7.564127 mW

   Cache Leakage Power:             0.000000 mW
   Cache Read Dynamic Power:        0.000000 mW
   Cache Write Dynamic Power:       0.000000 mW
   Cache Total Power:               0.000000 mW

   Accelerator Power:               0.208559 mW
   Accelerator Power (SPM):         7.772686 mW
   Accelerator Power (Cache):       0.208559 mW

   ========= Area Analysis =======================
   FU Area:                         5472.068359 um^2 (0.005472 mm^2)
   Register Area:                   429.271088 um^2 (0.000429 mm^2)
   SPM Area:                        2177.365505 um^2 (0.002177 mm^2)
   Cache Area:                      0.000000 um^2 (0.000000 mm^2)

   Accelerator Area:                5901.339355 um^2 (0.005901 mm^2)
   Accelerator Area (SPM):          8078.704860 um^2 (0.008079 mm^2)
   Accelerator Area (Cache):        5901.339355 um^2 (0.005901 mm^2)

   ========= SPM Resizing  =======================
   SPM Optimized Leakage Power:     0.004248 mW
   SPM Opt Area:                    178.524902 um^2

4023877500: global: Timer #0 started at tick 4023877500
4024125000: global: Timer #2 started at tick 4024125000
4024227500: global: Timer #2 stopped at tick 4024227500. Duration: 102500
4037413750: system.acctest.elem_matrix0_dma: SRC:0x0000000024020020, DST:0x0000000082280780, LEN:65536
4037761875: global: Timer #0 stopped at tick 4037761875. Duration: 13884375
4037776250: global: Number of accelerators running = 2
4043708750: system.acctest.elem_matrix0_dma: Transfer completed in 6.295 us
4043782500: global: Timer #0 started at tick 4043782500
4043952500: global: DAG ID = 2
4043966250: global: Node ID = 8
4043985625: global: Node deadline difference = -3407
4043998125: global: Predicted memory time / byte = 0 us/byte
4044010625: global: Predicted memory time = 0 us
4044023125: global: Predicted memory time / byte = 0 us/byte
4044035625: global: Predicted memory time = 0 us
4044048125: global: Predicted memory time / byte = 0 us/byte
4044060625: global: Predicted memory time = 0 us
4044073125: global: Predicted memory time / byte = 0 us/byte
4044085625: global: Predicted memory time = 0 us
4057472375: system.acctest.elem_matrix0_dma: SRC:0x0000000082220780, DST:0x0000000024000020, LEN:65536
4057681875: global: Timer #0 stopped at tick 4057681875. Duration: 13899375
4057696250: global: Number of accelerators running = 2
4069446375: system.acctest.elem_matrix0_dma: Transfer completed in 11.974 us
4069520625: global: Timer #0 started at tick 4069520625
4082855875: system.acctest.elem_matrix0_dma: SRC:0x00000000821f0780, DST:0x0000000024010020, LEN:65536
4083088125: global: Timer #0 stopped at tick 4083088125. Duration: 13567500
4083102500: global: Number of accelerators running = 2
4094786875: system.acctest.elem_matrix0_dma: Transfer completed in 11.931 us
4094860625: global: Timer #0 started at tick 4094860625
4096215000: global: Timer #0 stopped at tick 4096215000. Duration: 1354375
4096229375: global: Number of accelerators running = 2
********************************************************************************
system.acctest.elem_matrix0.compute
   ========= Performance Analysis =============
   Setup Time:                      7.291171seconds
   Simulation Time:                 191.217317seconds
   System Clock:                    1.000000GHz
   Transistor Latency:              1ns
   Runtime:                         10932 cycles
   Runtime:                         10.932000 us
   Stalls:                          1 cycles
   Executed Nodes:                  10930 cycles

********************************************************************************
   ========= Performance Analysis =================
   Setup Time:                      7291170792.000000ns
   Simulation Time:                 191217317091.000000ns
   System Clock:                    1.000000GHz
   Transistor Latency:              0ns
   Runtime:                         10932 cycles
   Runtime:                         0.000001 seconds
   Stalls:                          1 cycles
       Load Only:                   0 cycles
       Store Only:                  1 cycles
       Compute Only:                0 cycles
       Compute & Store:             0 cycles
       Load & Store:                0 cycles
       Load & Compute:              0 cycles
       Load & Compute & Store:      0 cycles
   Executed Nodes:                  10930 cycles
       Load Only:                   0 cycles
       Store Only:                  4 cycles
       Compute Only:                1 cycles
       Compute & Store:             21 cycles
       Load & Store:                0 cycles
       Load & Compute:              6 cycles
       Load & Compute & Store:      10898 cycles

   ========= Runtime FU's ========= (Max | Avg) ===
   Counter FU's:                      32 | 0.046838
   Integer Add/Sub FU's:               0 | 0.000000
   Integer Mul/Div FU's:               0 | 0.000000
   Integer Shifter FU's:               0 | 0.000000
   Integer Bitwise FU's:               1 | 0.000091
   Floating Point Float Add/Sub:       0 | 0.000000
   Floating Point Double Add/Sub:      0 | 0.000000
   Floating Point Float Mul/Div:      34 | 0.044252
   Floating Point Double Mul/Div:      0 | 0.000000
   0 Cycle Compare FU's:             102 | 0.046945
   GEP Instruction FU's:              96 | 0.046835
   Type Conversion FU's:               7 | 0.006782

   ========= Static FU's ==========================
   Counter FU's:                    0
   Integer Add/Sub FU's:            0
   Integer Mul/Div FU's:            0
   Integer Shifter FU's:            0
   Integer Bitwise FU's:            0
   Floating Point Float Add/Sub:    0
   Floating Point Double Add/Sub:   0
   Floating Point Float Mul/Div:    0
   Floating Point Double Mul/Div:   0
   0 Cycle Compare FU's:            0
   GEP Instruction FU's:            0
   Type Conversion FU's:            0
   Other:                           0

   ========= Pipeline Register Usage =============
   Total Number of Registers:       5641
   Max Register Usage Per Cycle:    137
   Avg Register Usage Per Cycle:    12.130992
   Avg Register Size (Bytes):       5.980606

   ========= Memory Configuration =================
   Cache Bus Ports:                 0
   Shared Cache Size:               0kB
   Local Bus Ports:                 0
   Private SPM Size:                256kB
   Private Read Ports:              0
   Private Write Ports:             0
   Private Read Bus Width:          64
   Private Write Bus Width:         64
       Memory Reads:                0
       Memory Writes:               0
   ========= Power Analysis ======================
   FU Leakage Power:                0.045377 mW 
   FU Dynamic Power:                0.142576 mW 
   FU Total Power:                  0.187953 mW 

   Registers Leakage Power:          0.005281 mW 
   Registers Dynamic Power:          0.015326 mW 
       Register Reads (Bits):        132616
       Register Writes (Bits):       133658
   Registers Total Power:            0.020607 mW

   SPM Leakage Power:               0.104100 mW
   SPM Read Dynamic Power:          4.985201 mW
   SPM Write Dynamic Power:         3.448926 mW
   SPM Total Power:                 8.538228 mW

   Cache Leakage Power:             0.000000 mW
   Cache Read Dynamic Power:        0.000000 mW
   Cache Write Dynamic Power:       0.000000 mW
   Cache Total Power:               0.000000 mW

   Accelerator Power:               0.208559 mW
   Accelerator Power (SPM):         8.746787 mW
   Accelerator Power (Cache):       0.208559 mW

   ========= Area Analysis =======================
   FU Area:                         5472.068359 um^2 (0.005472 mm^2)
   Register Area:                   429.271088 um^2 (0.000429 mm^2)
   SPM Area:                        2177.365505 um^2 (0.002177 mm^2)
   Cache Area:                      0.000000 um^2 (0.000000 mm^2)

   Accelerator Area:                5901.339355 um^2 (0.005901 mm^2)
   Accelerator Area (SPM):          8078.704860 um^2 (0.008079 mm^2)
   Accelerator Area (Cache):        5901.339355 um^2 (0.005901 mm^2)

   ========= SPM Resizing  =======================
   SPM Optimized Leakage Power:     0.004248 mW
   SPM Opt Area:                    178.524902 um^2

4107005625: global: Timer #0 started at tick 4107005625
4107445000: global: Timer #2 started at tick 4107445000
4107489375: global: Timer #2 stopped at tick 4107489375. Duration: 44375
4120663750: system.acctest.elem_matrix0_dma: SRC:0x0000000024020020, DST:0x00000000822f0780, LEN:65536
4121011875: global: Timer #0 stopped at tick 4121011875. Duration: 14006250
4121026250: global: Number of accelerators running = 2
4127009750: system.acctest.elem_matrix0_dma: Transfer completed in 6.346 us
4127083125: global: Timer #0 started at tick 4127083125
4127252500: global: DAG ID = 2
4127266250: global: Node ID = 13
4127285625: global: Node deadline difference = -3477
4127298125: global: Predicted memory time / byte = 0 us/byte
4127310625: global: Predicted memory time = 0 us
4127323125: global: Predicted memory time / byte = 0 us/byte
4127335625: global: Predicted memory time = 0 us
4127348125: global: Predicted memory time / byte = 0 us/byte
4127360625: global: Predicted memory time = 0 us
4127373125: global: Predicted memory time / byte = 0 us/byte
4127385625: global: Predicted memory time = 0 us
4140765875: system.acctest.elem_matrix0_dma: SRC:0x0000000082230780, DST:0x0000000024000020, LEN:65536
4140976250: global: Timer #0 stopped at tick 4140976250. Duration: 13893125
4140990625: global: Number of accelerators running = 2
4152730875: system.acctest.elem_matrix0_dma: Transfer completed in 11.965 us
4152805625: global: Timer #0 started at tick 4152805625
4166127375: system.acctest.elem_matrix0_dma: SRC:0x00000000821a0780, DST:0x0000000024010020, LEN:65536
4166348750: global: Timer #0 stopped at tick 4166348750. Duration: 13543125
4166363125: global: Number of accelerators running = 2
4178089375: system.acctest.elem_matrix0_dma: Transfer completed in 11.962 us
4178163125: global: Timer #0 started at tick 4178163125
4179500000: global: Timer #0 stopped at tick 4179500000. Duration: 1336875
4179514375: global: Number of accelerators running = 2
********************************************************************************
system.acctest.elem_matrix0.compute
   ========= Performance Analysis =============
   Setup Time:                      20.998561seconds
   Simulation Time:                 221.948318seconds
   System Clock:                    1.000000GHz
   Transistor Latency:              1ns
   Runtime:                         10932 cycles
   Runtime:                         10.932000 us
   Stalls:                          0 cycles
   Executed Nodes:                  10931 cycles

********************************************************************************
   ========= Performance Analysis =================
   Setup Time:                      20998561037.000000ns
   Simulation Time:                 221948318413.000000ns
   System Clock:                    1.000000GHz
   Transistor Latency:              0ns
   Runtime:                         10932 cycles
   Runtime:                         0.000001 seconds
   Stalls:                          0 cycles
       Load Only:                   0 cycles
       Store Only:                  0 cycles
       Compute Only:                0 cycles
       Compute & Store:             0 cycles
       Load & Store:                0 cycles
       Load & Compute:              0 cycles
       Load & Compute & Store:      0 cycles
   Executed Nodes:                  10931 cycles
       Load Only:                   0 cycles
       Store Only:                  5 cycles
       Compute Only:                1 cycles
       Compute & Store:             21 cycles
       Load & Store:                0 cycles
       Load & Compute:              7 cycles
       Load & Compute & Store:      10897 cycles

   ========= Runtime FU's ========= (Max | Avg) ===
   Counter FU's:                      32 | 0.046838
   Integer Add/Sub FU's:               0 | 0.000000
   Integer Mul/Div FU's:               0 | 0.000000
   Integer Shifter FU's:               0 | 0.000000
   Integer Bitwise FU's:               1 | 0.000091
   Floating Point Float Add/Sub:      34 | 0.044252
   Floating Point Double Add/Sub:      0 | 0.000000
   Floating Point Float Mul/Div:       0 | 0.000000
   Floating Point Double Mul/Div:      0 | 0.000000
   0 Cycle Compare FU's:             102 | 0.046974
   GEP Instruction FU's:              96 | 0.046835
   Type Conversion FU's:               7 | 0.006782

   ========= Static FU's ==========================
   Counter FU's:                    0
   Integer Add/Sub FU's:            0
   Integer Mul/Div FU's:            0
   Integer Shifter FU's:            0
   Integer Bitwise FU's:            0
   Floating Point Float Add/Sub:    0
   Floating Point Double Add/Sub:   0
   Floating Point Float Mul/Div:    0
   Floating Point Double Mul/Div:   0
   0 Cycle Compare FU's:            0
   GEP Instruction FU's:            0
   Type Conversion FU's:            0
   Other:                           0

   ========= Pipeline Register Usage =============
   Total Number of Registers:       5641
   Max Register Usage Per Cycle:    138
   Avg Register Usage Per Cycle:    12.130992
   Avg Register Size (Bytes):       5.980606

   ========= Memory Configuration =================
   Cache Bus Ports:                 0
   Shared Cache Size:               0kB
   Local Bus Ports:                 0
   Private SPM Size:                256kB
   Private Read Ports:              0
   Private Write Ports:             0
   Private Read Bus Width:          64
   Private Write Bus Width:         64
       Memory Reads:                0
       Memory Writes:               0
   ========= Power Analysis ======================
   FU Leakage Power:                0.519269 mW 
   FU Dynamic Power:                0.154621 mW 
   FU Total Power:                  0.673890 mW 

   Registers Leakage Power:          0.005281 mW 
   Registers Dynamic Power:          0.015326 mW 
       Register Reads (Bits):        132616
       Register Writes (Bits):       133658
   Registers Total Power:            0.020607 mW

   SPM Leakage Power:               0.104100 mW
   SPM Read Dynamic Power:          5.394845 mW
   SPM Write Dynamic Power:         3.846212 mW
   SPM Total Power:                 9.345157 mW

   Cache Leakage Power:             0.000000 mW
   Cache Read Dynamic Power:        0.000000 mW
   Cache Write Dynamic Power:       0.000000 mW
   Cache Total Power:               0.000000 mW

   Accelerator Power:               0.694497 mW
   Accelerator Power (SPM):         10.039654 mW
   Accelerator Power (Cache):       0.694497 mW

   ========= Area Analysis =======================
   FU Area:                         70212.562500 um^2 (0.070213 mm^2)
   Register Area:                   429.271088 um^2 (0.000429 mm^2)
   SPM Area:                        2177.365505 um^2 (0.002177 mm^2)
   Cache Area:                      0.000000 um^2 (0.000000 mm^2)

   Accelerator Area:                70641.835938 um^2 (0.070642 mm^2)
   Accelerator Area (SPM):          72819.201442 um^2 (0.072819 mm^2)
   Accelerator Area (Cache):        70641.835938 um^2 (0.070642 mm^2)

   ========= SPM Resizing  =======================
   SPM Optimized Leakage Power:     0.004248 mW
   SPM Opt Area:                    178.524902 um^2

4190290625: global: Timer #0 started at tick 4190290625
4190595000: global: Timer #2 started at tick 4190595000
4190699375: global: Timer #2 stopped at tick 4190699375. Duration: 104375
4203864500: system.acctest.elem_matrix0_dma: SRC:0x0000000024020020, DST:0x0000000082240780, LEN:65536
4204213125: global: Timer #0 stopped at tick 4204213125. Duration: 13922500
4204227500: global: Number of accelerators running = 2
4210246500: system.acctest.elem_matrix0_dma: Transfer completed in 6.382 us
4210320625: global: Timer #0 started at tick 4210320625
4210490625: global: DAG ID = 2
4210504375: global: Node ID = 2
4210523750: global: Node deadline difference = -3297
4210536250: global: Predicted memory time / byte = 0 us/byte
4210548750: global: Predicted memory time = 0 us
4210561250: global: Predicted memory time / byte = 0 us/byte
4210573750: global: Predicted memory time = 0 us
4210586250: global: Predicted memory time / byte = 0 us/byte
4210598750: global: Predicted memory time = 0 us
4210611250: global: Predicted memory time / byte = 0 us/byte
4210623750: global: Predicted memory time = 0 us
4223999500: system.acctest.elem_matrix0_dma: SRC:0x0000000082270780, DST:0x0000000024000020, LEN:65536
4224208750: global: Timer #0 stopped at tick 4224208750. Duration: 13888125
4224223125: global: Number of accelerators running = 2
4235971500: system.acctest.elem_matrix0_dma: Transfer completed in 11.972 us
4236045625: global: Timer #0 started at tick 4236045625
4249353750: system.acctest.elem_matrix0_dma: SRC:0x00000000821c0780, DST:0x0000000024010020, LEN:65536
4249575000: global: Timer #0 stopped at tick 4249575000. Duration: 13529375
4249589375: global: Number of accelerators running = 2
4261349750: system.acctest.elem_matrix0_dma: Transfer completed in 11.996 us
4261423125: global: Timer #0 started at tick 4261423125
4262731875: global: Timer #0 stopped at tick 4262731875. Duration: 1308750
4262746250: global: Number of accelerators running = 2
********************************************************************************
system.acctest.elem_matrix0.compute
   ========= Performance Analysis =============
   Setup Time:                      13.112019seconds
   Simulation Time:                 189.113291seconds
   System Clock:                    1.000000GHz
   Transistor Latency:              1ns
   Runtime:                         10932 cycles
   Runtime:                         10.932000 us
   Stalls:                          0 cycles
   Executed Nodes:                  10931 cycles

********************************************************************************
   ========= Performance Analysis =================
   Setup Time:                      13112019241.000000ns
   Simulation Time:                 189113291278.000000ns
   System Clock:                    1.000000GHz
   Transistor Latency:              0ns
   Runtime:                         10932 cycles
   Runtime:                         0.000001 seconds
   Stalls:                          0 cycles
       Load Only:                   0 cycles
       Store Only:                  0 cycles
       Compute Only:                0 cycles
       Compute & Store:             0 cycles
       Load & Store:                0 cycles
       Load & Compute:              0 cycles
       Load & Compute & Store:      0 cycles
   Executed Nodes:                  10931 cycles
       Load Only:                   0 cycles
       Store Only:                  5 cycles
       Compute Only:                1 cycles
       Compute & Store:             21 cycles
       Load & Store:                0 cycles
       Load & Compute:              7 cycles
       Load & Compute & Store:      10897 cycles

   ========= Runtime FU's ========= (Max | Avg) ===
   Counter FU's:                      32 | 0.046838
   Integer Add/Sub FU's:               0 | 0.000000
   Integer Mul/Div FU's:               0 | 0.000000
   Integer Shifter FU's:               0 | 0.000000
   Integer Bitwise FU's:               1 | 0.000091
   Floating Point Float Add/Sub:      34 | 0.044252
   Floating Point Double Add/Sub:      0 | 0.000000
   Floating Point Float Mul/Div:       0 | 0.000000
   Floating Point Double Mul/Div:      0 | 0.000000
   0 Cycle Compare FU's:             102 | 0.046974
   GEP Instruction FU's:              96 | 0.046835
   Type Conversion FU's:               7 | 0.006782

   ========= Static FU's ==========================
   Counter FU's:                    0
   Integer Add/Sub FU's:            0
   Integer Mul/Div FU's:            0
   Integer Shifter FU's:            0
   Integer Bitwise FU's:            0
   Floating Point Float Add/Sub:    0
   Floating Point Double Add/Sub:   0
   Floating Point Float Mul/Div:    0
   Floating Point Double Mul/Div:   0
   0 Cycle Compare FU's:            0
   GEP Instruction FU's:            0
   Type Conversion FU's:            0
   Other:                           0

   ========= Pipeline Register Usage =============
   Total Number of Registers:       5641
   Max Register Usage Per Cycle:    138
   Avg Register Usage Per Cycle:    12.130992
   Avg Register Size (Bytes):       5.980606

   ========= Memory Configuration =================
   Cache Bus Ports:                 0
   Shared Cache Size:               0kB
   Local Bus Ports:                 0
   Private SPM Size:                256kB
   Private Read Ports:              0
   Private Write Ports:             0
   Private Read Bus Width:          64
   Private Write Bus Width:         64
       Memory Reads:                0
       Memory Writes:               0
   ========= Power Analysis ======================
   FU Leakage Power:                0.519269 mW 
   FU Dynamic Power:                0.154621 mW 
   FU Total Power:                  0.673890 mW 

   Registers Leakage Power:          0.005281 mW 
   Registers Dynamic Power:          0.015326 mW 
       Register Reads (Bits):        132616
       Register Writes (Bits):       133658
   Registers Total Power:            0.020607 mW

   SPM Leakage Power:               0.104100 mW
   SPM Read Dynamic Power:          5.804542 mW
   SPM Write Dynamic Power:         4.937352 mW
   SPM Total Power:                 10.845994 mW

   Cache Leakage Power:             0.000000 mW
   Cache Read Dynamic Power:        0.000000 mW
   Cache Write Dynamic Power:       0.000000 mW
   Cache Total Power:               0.000000 mW

   Accelerator Power:               0.694497 mW
   Accelerator Power (SPM):         11.540491 mW
   Accelerator Power (Cache):       0.694497 mW

   ========= Area Analysis =======================
   FU Area:                         70212.562500 um^2 (0.070213 mm^2)
   Register Area:                   429.271088 um^2 (0.000429 mm^2)
   SPM Area:                        2177.365505 um^2 (0.002177 mm^2)
   Cache Area:                      0.000000 um^2 (0.000000 mm^2)

   Accelerator Area:                70641.835938 um^2 (0.070642 mm^2)
   Accelerator Area (SPM):          72819.201442 um^2 (0.072819 mm^2)
   Accelerator Area (Cache):        70641.835938 um^2 (0.070642 mm^2)

   ========= SPM Resizing  =======================
   SPM Optimized Leakage Power:     0.004248 mW
   SPM Opt Area:                    178.524902 um^2

4273535625: global: Timer #0 started at tick 4273535625
4273835000: global: Timer #2 started at tick 4273835000
4273937500: global: Timer #2 stopped at tick 4273937500. Duration: 102500
4287103750: system.acctest.elem_matrix0_dma: SRC:0x0000000024020020, DST:0x0000000082290780, LEN:65536
4287451875: global: Timer #0 stopped at tick 4287451875. Duration: 13916250
4287466250: global: Number of accelerators running = 2
4293383750: system.acctest.elem_matrix0_dma: Transfer completed in 6.28 us
4293457500: global: Timer #0 started at tick 4293457500
4293627500: global: DAG ID = 2
4293641250: global: Node ID = 6
4293660625: global: Node deadline difference = -3214
4293673125: global: Predicted memory time / byte = 0 us/byte
4293685625: global: Predicted memory time = 0 us
4293698125: global: Predicted memory time / byte = 0 us/byte
4293710625: global: Predicted memory time = 0 us
[...]
   Setup Time:                      3344009372.000000ns
   Simulation Time:                 77568709598.000000ns
   System Clock:                    1.000000GHz
   Transistor Latency:              0ns
   Runtime:                         10944 cycles
   Runtime:                         0.000001 seconds
   Stalls:                          1 cycles
       Load Only:                   0 cycles
       Store Only:                  1 cycles
       Compute Only:                0 cycles
       Compute & Store:             0 cycles
       Load & Store:                0 cycles
       Load & Compute:              0 cycles
       Load & Compute & Store:      0 cycles
   Executed Nodes:                  10942 cycles
       Load Only:                   0 cycles
       Store Only:                  16 cycles
       Compute Only:                1 cycles
       Compute & Store:             21 cycles
       Load & Store:                0 cycles
       Load & Compute:              18 cycles
       Load & Compute & Store:      10886 cycles

   ========= Runtime FU's ========= (Max | Avg) ===
   Counter FU's:                      32 | 0.046786
   Integer Add/Sub FU's:               0 | 0.000000
   Integer Mul/Div FU's:               0 | 0.000000
   Integer Shifter FU's:               0 | 0.000000
   Integer Bitwise FU's:               1 | 0.000091
   Floating Point Float Add/Sub:       0 | 0.000000
   Floating Point Double Add/Sub:      0 | 0.000000
   Floating Point Float Mul/Div:       0 | 0.000000
   Floating Point Double Mul/Div:      0 | 0.000000
   0 Cycle Compare FU's:             102 | 0.047066
   GEP Instruction FU's:              96 | 0.046784
   Type Conversion FU's:               7 | 0.006775

   ========= Static FU's ==========================
   Counter FU's:                    0
   Integer Add/Sub FU's:            0
   Integer Mul/Div FU's:            0
   Integer Shifter FU's:            0
   Integer Bitwise FU's:            0
   Floating Point Float Add/Sub:    0
   Floating Point Double Add/Sub:   0
   Floating Point Float Mul/Div:    0
   Floating Point Double Mul/Div:   0
   0 Cycle Compare FU's:            0
   GEP Instruction FU's:            0
   Type Conversion FU's:            0
   Other:                           0

   ========= Pipeline Register Usage =============
   Total Number of Registers:       5641
   Max Register Usage Per Cycle:    137
   Avg Register Usage Per Cycle:    12.117690
   Avg Register Size (Bytes):       5.980606

   ========= Memory Configuration =================
   Cache Bus Ports:                 0
   Shared Cache Size:               0kB
   Local Bus Ports:                 0
   Private SPM Size:                256kB
   Private Read Ports:              0
   Private Write Ports:             0
   Private Read Bus Width:          64
   Private Write Bus Width:         64
       Memory Reads:                0
       Memory Writes:               0
   ========= Power Analysis ======================
   FU Leakage Power:                0.000611 mW 
   FU Dynamic Power:                0.036818 mW 
   FU Total Power:                  0.037429 mW 

   Registers Leakage Power:          0.005281 mW 
   Registers Dynamic Power:          0.015342 mW 
       Register Reads (Bits):        132616
       Register Writes (Bits):       133658
   Registers Total Power:            0.020624 mW

   SPM Leakage Power:               0.104100 mW
   SPM Read Dynamic Power:          26.058773 mW
   SPM Write Dynamic Power:         20.320537 mW
   SPM Total Power:                 46.483410 mW

   Cache Leakage Power:             0.000000 mW
   Cache Read Dynamic Power:        0.000000 mW
   Cache Write Dynamic Power:       0.000000 mW
   Cache Total Power:               0.000000 mW

   Accelerator Power:               0.058053 mW
   Accelerator Power (SPM):         46.541464 mW
   Accelerator Power (Cache):       0.058053 mW

   ========= Area Analysis =======================
   FU Area:                         50.369961 um^2 (0.000050 mm^2)
   Register Area:                   429.271088 um^2 (0.000429 mm^2)
   SPM Area:                        2177.365505 um^2 (0.002177 mm^2)
   Cache Area:                      0.000000 um^2 (0.000000 mm^2)

   Accelerator Area:                479.641052 um^2 (0.000480 mm^2)
   Accelerator Area (SPM):          2657.006557 um^2 (0.002657 mm^2)
   Accelerator Area (Cache):        479.641052 um^2 (0.000480 mm^2)

   ========= SPM Resizing  =======================
   SPM Optimized Leakage Power:     0.004248 mW
   SPM Opt Area:                    178.524902 um^2

30906077500: global: Timer #0 started at tick 30906077500
30906240000: global: Timer #2 started at tick 30906240000
30906271875: global: Timer #2 stopped at tick 30906271875. Duration: 31875
30906573125: global: DAG ID = 0
30906586875: global: Node ID = 19
30906600000: global: Node deadline difference = 12167
30906612500: global: Predicted memory time / byte = 0 us/byte
30906625000: global: Predicted memory time = 0 us
30906637500: global: Predicted memory time / byte = 0 us/byte
30906650000: global: Predicted memory time = 0 us
30906662500: global: Predicted memory time / byte = 0 us/byte
30906675000: global: Predicted memory time = 0 us
30906687500: global: Predicted memory time / byte = 0 us/byte
30906700000: global: Predicted memory time = 0 us
30907581625: system.acctest.convolution0_dma: SRC:0x0000000024020020, DST:0x0000000022000020, LEN:65536
30907803750: global: Timer #0 stopped at tick 30907803750. Duration: 1726250
30907818125: global: Number of accelerators running = 1
30917842625: system.acctest.convolution0_dma: Transfer completed in 10.261 us
30917973125: global: Timer #0 started at tick 30917973125
30918840875: system.acctest.convolution0_dma: SRC:0x0000000082018800, DST:0x0000000022030020, LEN:100
30918937875: system.acctest.convolution0_dma: Transfer completed in 0.097 us
30919045625: global: Timer #0 stopped at tick 30919045625. Duration: 1072500
30919060000: global: Number of accelerators running = 1
30919166250: global: Timer #0 started at tick 30919166250
30920449375: global: Timer #0 stopped at tick 30920449375. Duration: 1283125
30920463750: global: Number of accelerators running = 1
********************************************************************************
system.acctest.convolution0.compute
   ========= Performance Analysis =============
   Setup Time:                      0.397878seconds
   Simulation Time:                 193.695229seconds
   System Clock:                    1.000000GHz
   Transistor Latency:              1ns
   Runtime:                         1545605 cycles
   Runtime:                         1545.605000 us
   Stalls:                          0 cycles
   Executed Nodes:                  1545604 cycles

********************************************************************************
   ========= Performance Analysis =================
   Setup Time:                      397878201.000000ns
   Simulation Time:                 193695229129.000000ns
   System Clock:                    1.000000GHz
   Transistor Latency:              0ns
   Runtime:                         1545605 cycles
   Runtime:                         0.000155 seconds
   Stalls:                          0 cycles
       Load Only:                   0 cycles
       Store Only:                  0 cycles
       Compute Only:                0 cycles
       Compute & Store:             0 cycles
       Load & Store:                0 cycles
       Load & Compute:              0 cycles
       Load & Compute & Store:      0 cycles
   Executed Nodes:                  1545604 cycles
       Load Only:                   0 cycles
       Store Only:                  0 cycles
       Compute Only:                1127274 cycles
       Compute & Store:             16374 cycles
       Load & Store:                0 cycles
       Load & Compute:              401946 cycles
       Load & Compute & Store:      10 cycles

   ========= Runtime FU's ========= (Max | Avg) ===
   Counter FU's:                       3 | 0.112298
   Integer Add/Sub FU's:               4 | 0.211564
   Integer Mul/Div FU's:               1 | 0.052505
   Integer Shifter FU's:              10 | 0.005268
   Integer Bitwise FU's:               2 | 0.184266
   Floating Point Float Add/Sub:       5 | 0.207991
   Floating Point Double Add/Sub:      0 | 0.000000
   Floating Point Float Mul/Div:       2 | 0.130117
   Floating Point Double Mul/Div:      0 | 0.000000
   0 Cycle Compare FU's:              40 | 0.145956
   GEP Instruction FU's:               4 | 0.132683
   Type Conversion FU's:               7 | 0.186618

   ========= Static FU's ==========================
   Counter FU's:                    0
   Integer Add/Sub FU's:            0
   Integer Mul/Div FU's:            0
   Integer Shifter FU's:            0
   Integer Bitwise FU's:            0
   Floating Point Float Add/Sub:    0
   Floating Point Double Add/Sub:   0
   Floating Point Float Mul/Div:    0
   Floating Point Double Mul/Div:   0
   0 Cycle Compare FU's:            0
   GEP Instruction FU's:            0
   Type Conversion FU's:            0
   Other:                           0

   ========= Pipeline Register Usage =============
   Total Number of Registers:       1702
   Max Register Usage Per Cycle:    20
   Avg Register Usage Per Cycle:    6.348199
   Avg Register Size (Bytes):       5.569148

   ========= Memory Configuration =================
   Cache Bus Ports:                 0
   Shared Cache Size:               0kB
   Local Bus Ports:                 0
   Private SPM Size:                192kB
   Private Read Ports:              0
   Private Write Ports:             0
   Private Read Bus Width:          64
   Private Write Bus Width:         64
       Memory Reads:                0
       Memory Writes:               0
   ========= Power Analysis ======================
   FU Leakage Power:                0.196912 mW 
   FU Dynamic Power:                2743.028564 mW 
   FU Total Power:                  2743.225586 mW 

   Registers Leakage Power:          0.002459 mW 
   Registers Dynamic Power:          75.251152 mW 
       Register Reads (Bits):        9811808
       Register Writes (Bits):       10049727
   Registers Total Power:            75.253609 mW

   SPM Leakage Power:               0.078311 mW
   SPM Read Dynamic Power:          39.557522 mW
   SPM Write Dynamic Power:         6.188103 mW
   SPM Total Power:                 45.823935 mW

   Cache Leakage Power:             0.000000 mW
   Cache Read Dynamic Power:        0.000000 mW
   Cache Write Dynamic Power:       0.000000 mW
   Cache Total Power:               0.000000 mW

   Accelerator Power:               2818.479248 mW
   Accelerator Power (SPM):         2864.303183 mW
   Accelerator Power (Cache):       2818.479248 mW

   ========= Area Analysis =======================
   FU Area:                         22931.867188 um^2 (0.022932 mm^2)
   Register Area:                   199.868912 um^2 (0.000200 mm^2)
   SPM Area:                        1748.188735 um^2 (0.001748 mm^2)
   Cache Area:                      0.000000 um^2 (0.000000 mm^2)

   Accelerator Area:                23131.736328 um^2 (0.023132 mm^2)
   Accelerator Area (SPM):          24879.925063 um^2 (0.024880 mm^2)
   Accelerator Area (Cache):        23131.736328 um^2 (0.023132 mm^2)

   ========= SPM Resizing  =======================
   SPM Optimized Leakage Power:     0.002053 mW
   SPM Opt Area:                    145.024971 um^2

32465927500: global: Timer #0 started at tick 32465927500
32466090000: global: Timer #2 started at tick 32466090000
32466121875: global: Timer #2 stopped at tick 32466121875. Duration: 31875
32466348125: global: DAG ID = 0
32466361875: global: Node ID = 20
32466375000: global: Node deadline difference = 12150
32466387500: global: Predicted memory time / byte = 0 us/byte
32466400000: global: Predicted memory time = 0 us
32466412500: global: Predicted memory time / byte = 0 us/byte
32466425000: global: Predicted memory time = 0 us
32466437500: global: Predicted memory time / byte = 0 us/byte
32466450000: global: Predicted memory time = 0 us
32466462500: global: Predicted memory time / byte = 0 us/byte
32466475000: global: Predicted memory time = 0 us
32479953750: system.acctest.elem_matrix0_dma: SRC:0x00000000820488c0, DST:0x0000000024000020, LEN:65536
32480152500: global: Timer #0 stopped at tick 32480152500. Duration: 14225000
32480166250: global: Number of accelerators running = 1
32491916750: system.acctest.elem_matrix0_dma: Transfer completed in 11.963 us
32492001250: global: Timer #0 started at tick 32492001250
32492865875: system.acctest.elem_matrix0_dma: SRC:0x0000000022010020, DST:0x0000000024010020, LEN:65536
32493079375: global: Timer #0 stopped at tick 32493079375. Duration: 1078125
32493093750: global: Number of accelerators running = 1
32503126875: system.acctest.elem_matrix0_dma: Transfer completed in 10.261 us
32503200625: global: Timer #0 started at tick 32503200625
32504518125: global: Timer #0 stopped at tick 32504518125. Duration: 1317500
32504532500: global: Number of accelerators running = 1
********************************************************************************
system.acctest.elem_matrix0.compute
   ========= Performance Analysis =============
   Setup Time:                      3.489359seconds
   Simulation Time:                 78.443617seconds
   System Clock:                    1.000000GHz
   Transistor Latency:              1ns
   Runtime:                         10932 cycles
   Runtime:                         10.932000 us
   Stalls:                          1 cycles
   Executed Nodes:                  10930 cycles

********************************************************************************
   ========= Performance Analysis =================
   Setup Time:                      3489358621.000000ns
   Simulation Time:                 78443617195.000000ns
   System Clock:                    1.000000GHz
   Transistor Latency:              0ns
   Runtime:                         10932 cycles
   Runtime:                         0.000001 seconds
   Stalls:                          1 cycles
       Load Only:                   0 cycles
       Store Only:                  1 cycles
       Compute Only:                0 cycles
       Compute & Store:             0 cycles
       Load & Store:                0 cycles
       Load & Compute:              0 cycles
       Load & Compute & Store:      0 cycles
   Executed Nodes:                  10930 cycles
       Load Only:                   0 cycles
       Store Only:                  4 cycles
       Compute Only:                1 cycles
       Compute & Store:             21 cycles
       Load & Store:                0 cycles
       Load & Compute:              6 cycles
       Load & Compute & Store:      10898 cycles

   ========= Runtime FU's ========= (Max | Avg) ===
   Counter FU's:                      32 | 0.046838
   Integer Add/Sub FU's:               0 | 0.000000
   Integer Mul/Div FU's:               0 | 0.000000
   Integer Shifter FU's:               0 | 0.000000
   Integer Bitwise FU's:               1 | 0.000091
   Floating Point Float Add/Sub:       0 | 0.000000
   Floating Point Double Add/Sub:      0 | 0.000000
   Floating Point Float Mul/Div:      34 | 0.044252
   Floating Point Double Mul/Div:      0 | 0.000000
   0 Cycle Compare FU's:             102 | 0.046945
   GEP Instruction FU's:              96 | 0.046835
   Type Conversion FU's:               7 | 0.006782

   ========= Static FU's ==========================
   Counter FU's:                    0
   Integer Add/Sub FU's:            0
   Integer Mul/Div FU's:            0
   Integer Shifter FU's:            0
   Integer Bitwise FU's:            0
   Floating Point Float Add/Sub:    0
   Floating Point Double Add/Sub:   0
   Floating Point Float Mul/Div:    0
   Floating Point Double Mul/Div:   0
   0 Cycle Compare FU's:            0
   GEP Instruction FU's:            0
   Type Conversion FU's:            0
   Other:                           0

   ========= Pipeline Register Usage =============
   Total Number of Registers:       5641
   Max Register Usage Per Cycle:    137
   Avg Register Usage Per Cycle:    12.130992
   Avg Register Size (Bytes):       5.980606

   ========= Memory Configuration =================
   Cache Bus Ports:                 0
   Shared Cache Size:               0kB
   Local Bus Ports:                 0
   Private SPM Size:                256kB
   Private Read Ports:              0
   Private Write Ports:             0
   Private Read Bus Width:          64
   Private Write Bus Width:         64
       Memory Reads:                0
       Memory Writes:               0
   ========= Power Analysis ======================
   FU Leakage Power:                0.045377 mW 
   FU Dynamic Power:                0.142576 mW 
   FU Total Power:                  0.187953 mW 

   Registers Leakage Power:          0.005281 mW 
   Registers Dynamic Power:          0.015326 mW 
       Register Reads (Bits):        132616
       Register Writes (Bits):       133658
   Registers Total Power:            0.020607 mW

   SPM Leakage Power:               0.104100 mW
   SPM Read Dynamic Power:          26.158944 mW
   SPM Write Dynamic Power:         20.372023 mW
   SPM Total Power:                 46.635067 mW

   Cache Leakage Power:             0.000000 mW
   Cache Read Dynamic Power:        0.000000 mW
   Cache Write Dynamic Power:       0.000000 mW
   Cache Total Power:               0.000000 mW

   Accelerator Power:               0.208559 mW
   Accelerator Power (SPM):         46.843627 mW
   Accelerator Power (Cache):       0.208559 mW

   ========= Area Analysis =======================
   FU Area:                         5472.068359 um^2 (0.005472 mm^2)
   Register Area:                   429.271088 um^2 (0.000429 mm^2)
   SPM Area:                        2177.365505 um^2 (0.002177 mm^2)
   Cache Area:                      0.000000 um^2 (0.000000 mm^2)

   Accelerator Area:                5901.339355 um^2 (0.005901 mm^2)
   Accelerator Area (SPM):          8078.704860 um^2 (0.008079 mm^2)
   Accelerator Area (Cache):        5901.339355 um^2 (0.005901 mm^2)

   ========= SPM Resizing  =======================
   SPM Optimized Leakage Power:     0.004248 mW
   SPM Opt Area:                    178.524902 um^2

32515315625: global: Timer #0 started at tick 32515315625
32528628750: system.acctest.elem_matrix0_dma: SRC:0x0000000024020020, DST:0x00000000820488c0, LEN:65536
32528971875: global: Timer #0 stopped at tick 32528971875. Duration: 13656250
32528986250: global: Number of accelerators running = 1
32534915750: system.acctest.elem_matrix0_dma: Transfer completed in 6.287 us
32534990625: global: Timer #0 started at tick 32534990625
32535173750: global: DAG ID = 0
32535187500: global: Node ID = 21
32535211875: global: DAG execution time = 28829
32535225000: global: DAG deadline difference = 12162
32535243125: global: Node deadline difference = 12162
32535255625: global: Predicted memory time / byte = 0 us/byte
32535268125: global: Predicted memory time = 0 us
32535280625: global: Predicted memory time / byte = 0 us/byte
32535293125: global: Predicted memory time = 0 us
32535305625: global: Predicted memory time / byte = 0 us/byte
32535318125: global: Predicted memory time = 0 us
32535330625: global: Predicted memory time / byte = 0 us/byte
32535343125: global: Predicted memory time = 0 us
32535437500: global: Timer #0 stopped at tick 32535437500. Duration: 446875
32535451875: global: Number of accelerators running = 0
32535528750: global: Number of forwards = 63
32535664375: global: Number of colocations = 41
32535683750: global: Number of DAG deadlines met = 1
32535703750: global: Number of node deadlines met = 102
32535742500: global: Total predicted compute time = 0 us
Exiting @ tick 32535926250 because m5_exit instruction encountered
