
---------- Begin Simulation Statistics ----------
final_tick                               102213470037                       # Number of ticks from beginning of simulation (restored from checkpoints and never reset)
host_inst_rate                                  71552                       # Simulator instruction rate (inst/s)
host_mem_usage                                4615036                       # Number of bytes of host memory used
host_op_rate                                    87212                       # Simulator op (including micro ops) rate (op/s)
host_seconds                                  5431.83                       # Real time elapsed on the host
host_tick_rate                               18817507                       # Simulator tick rate (ticks/s)
sim_freq                                 1000000000000                       # Frequency of simulated ticks
sim_insts                                   388657315                       # Number of instructions simulated
sim_ops                                     473723263                       # Number of ops (including micro ops) simulated
sim_seconds                                  0.102213                       # Number of seconds simulated
sim_ticks                                102213470037                       # Number of ticks simulated
system.cpu_cluster.cpus.branchPred.BTBCorrect            0                       # Number of correct BTB predictions (this stat may not work properly.
system.cpu_cluster.cpus.branchPred.BTBHitPct    99.328274                       # BTB Hit Percentage
system.cpu_cluster.cpus.branchPred.BTBHits     17471014                       # Number of BTB hits
system.cpu_cluster.cpus.branchPred.BTBLookups     17589165                       # Number of BTB lookups
system.cpu_cluster.cpus.branchPred.RASInCorrect           11                       # Number of incorrect RAS predictions.
system.cpu_cluster.cpus.branchPred.condIncorrect      2238721                       # Number of conditional branches incorrect
system.cpu_cluster.cpus.branchPred.condPredicted     52663739                       # Number of conditional branches predicted
system.cpu_cluster.cpus.branchPred.indirectHits        74625                       # Number of indirect target hits.
system.cpu_cluster.cpus.branchPred.indirectLookups        76742                       # Number of indirect predictor lookups.
system.cpu_cluster.cpus.branchPred.indirectMisses         2117                       # Number of indirect misses.
system.cpu_cluster.cpus.branchPred.lookups     59079646                       # Number of BP lookups
system.cpu_cluster.cpus.branchPred.usedRAS      2753391                       # Number of times the RAS was used to get a target.
system.cpu_cluster.cpus.branchPredindirectMispredicted         4417                       # Number of mispredicted indirect branches.
system.cpu_cluster.cpus.cc_regfile_reads    152191845                       # number of cc regfile reads
system.cpu_cluster.cpus.cc_regfile_writes    152894352                       # number of cc regfile writes
system.cpu_cluster.cpus.commit.amos               242                       # Number of atomic instructions committed
system.cpu_cluster.cpus.commit.branchMispredicts      2223725                       # The number of times a branch was mispredicted
system.cpu_cluster.cpus.commit.branches      48166023                       # Number of branches committed
system.cpu_cluster.cpus.commit.bw_lim_events     13175729                       # number cycles where commit BW limit reached
system.cpu_cluster.cpus.commit.commitNonSpecStalls        26558                       # The number of times commit has been forced to stall to communicate backwards
system.cpu_cluster.cpus.commit.commitSquashedInsts     43719248                       # The number of squashed insts skipped by commit
system.cpu_cluster.cpus.commit.committedInsts    388667306                       # Number of instructions committed
system.cpu_cluster.cpus.commit.committedOps    473733254                       # Number of ops (including micro ops) committed
system.cpu_cluster.cpus.commit.committed_per_cycle::samples    279361253                       # Number of insts commited each cycle
system.cpu_cluster.cpus.commit.committed_per_cycle::mean     1.695773                       # Number of insts commited each cycle
system.cpu_cluster.cpus.commit.committed_per_cycle::stdev     2.132299                       # Number of insts commited each cycle
system.cpu_cluster.cpus.commit.committed_per_cycle::underflows            0      0.00%      0.00% # Number of insts commited each cycle
system.cpu_cluster.cpus.commit.committed_per_cycle::0    100871598     36.11%     36.11% # Number of insts commited each cycle
system.cpu_cluster.cpus.commit.committed_per_cycle::1     77066188     27.59%     63.69% # Number of insts commited each cycle
system.cpu_cluster.cpus.commit.committed_per_cycle::2     39647093     14.19%     77.89% # Number of insts commited each cycle
system.cpu_cluster.cpus.commit.committed_per_cycle::3     14076853      5.04%     82.93% # Number of insts commited each cycle
system.cpu_cluster.cpus.commit.committed_per_cycle::4     14615295      5.23%     88.16% # Number of insts commited each cycle
system.cpu_cluster.cpus.commit.committed_per_cycle::5     11828018      4.23%     92.39% # Number of insts commited each cycle
system.cpu_cluster.cpus.commit.committed_per_cycle::6      4428134      1.59%     93.98% # Number of insts commited each cycle
system.cpu_cluster.cpus.commit.committed_per_cycle::7      3652345      1.31%     95.28% # Number of insts commited each cycle
system.cpu_cluster.cpus.commit.committed_per_cycle::8     13175729      4.72%    100.00% # Number of insts commited each cycle
system.cpu_cluster.cpus.commit.committed_per_cycle::overflows            0      0.00%    100.00% # Number of insts commited each cycle
system.cpu_cluster.cpus.commit.committed_per_cycle::min_value            0                       # Number of insts commited each cycle
system.cpu_cluster.cpus.commit.committed_per_cycle::max_value            8                       # Number of insts commited each cycle
system.cpu_cluster.cpus.commit.committed_per_cycle::total    279361253                       # Number of insts commited each cycle
system.cpu_cluster.cpus.commit.fp_insts             0                       # Number of committed floating point instructions.
system.cpu_cluster.cpus.commit.function_calls      2178708                       # Number of function calls committed.
system.cpu_cluster.cpus.commit.int_insts    430169585                       # Number of committed integer instructions.
system.cpu_cluster.cpus.commit.loads        115979772                       # Number of loads committed
system.cpu_cluster.cpus.commit.membars            267                       # Number of memory barriers committed
system.cpu_cluster.cpus.commit.op_class_0::No_OpClass        29525      0.01%      0.01% # Class of committed instruction
system.cpu_cluster.cpus.commit.op_class_0::IntAlu    290063762     61.23%     61.24% # Class of committed instruction
system.cpu_cluster.cpus.commit.op_class_0::IntMult        12533      0.00%     61.24% # Class of committed instruction
system.cpu_cluster.cpus.commit.op_class_0::IntDiv           29      0.00%     61.24% # Class of committed instruction
system.cpu_cluster.cpus.commit.op_class_0::FloatAdd         2208      0.00%     61.24% # Class of committed instruction
system.cpu_cluster.cpus.commit.op_class_0::FloatCmp           12      0.00%     61.24% # Class of committed instruction
system.cpu_cluster.cpus.commit.op_class_0::FloatCvt         2209      0.00%     61.24% # Class of committed instruction
system.cpu_cluster.cpus.commit.op_class_0::FloatMult            0      0.00%     61.24% # Class of committed instruction
system.cpu_cluster.cpus.commit.op_class_0::FloatMultAcc            0      0.00%     61.24% # Class of committed instruction
system.cpu_cluster.cpus.commit.op_class_0::FloatDiv         2211      0.00%     61.24% # Class of committed instruction
system.cpu_cluster.cpus.commit.op_class_0::FloatMisc         9237      0.00%     61.24% # Class of committed instruction
system.cpu_cluster.cpus.commit.op_class_0::FloatSqrt            0      0.00%     61.24% # Class of committed instruction
system.cpu_cluster.cpus.commit.op_class_0::SimdAdd         8492      0.00%     61.24% # Class of committed instruction
system.cpu_cluster.cpus.commit.op_class_0::SimdAddAcc            0      0.00%     61.24% # Class of committed instruction
system.cpu_cluster.cpus.commit.op_class_0::SimdAlu         8511      0.00%     61.25% # Class of committed instruction
system.cpu_cluster.cpus.commit.op_class_0::SimdCmp         9254      0.00%     61.25% # Class of committed instruction
system.cpu_cluster.cpus.commit.op_class_0::SimdCvt            2      0.00%     61.25% # Class of committed instruction
system.cpu_cluster.cpus.commit.op_class_0::SimdMisc       142822      0.03%     61.28% # Class of committed instruction
system.cpu_cluster.cpus.commit.op_class_0::SimdMult            0      0.00%     61.28% # Class of committed instruction
system.cpu_cluster.cpus.commit.op_class_0::SimdMultAcc            0      0.00%     61.28% # Class of committed instruction
system.cpu_cluster.cpus.commit.op_class_0::SimdShift            2      0.00%     61.28% # Class of committed instruction
system.cpu_cluster.cpus.commit.op_class_0::SimdShiftAcc            0      0.00%     61.28% # Class of committed instruction
system.cpu_cluster.cpus.commit.op_class_0::SimdDiv            0      0.00%     61.28% # Class of committed instruction
system.cpu_cluster.cpus.commit.op_class_0::SimdSqrt            0      0.00%     61.28% # Class of committed instruction
system.cpu_cluster.cpus.commit.op_class_0::SimdFloatAdd            0      0.00%     61.28% # Class of committed instruction
system.cpu_cluster.cpus.commit.op_class_0::SimdFloatAlu            0      0.00%     61.28% # Class of committed instruction
system.cpu_cluster.cpus.commit.op_class_0::SimdFloatCmp            0      0.00%     61.28% # Class of committed instruction
system.cpu_cluster.cpus.commit.op_class_0::SimdFloatCvt            0      0.00%     61.28% # Class of committed instruction
system.cpu_cluster.cpus.commit.op_class_0::SimdFloatDiv            0      0.00%     61.28% # Class of committed instruction
system.cpu_cluster.cpus.commit.op_class_0::SimdFloatMisc            0      0.00%     61.28% # Class of committed instruction
system.cpu_cluster.cpus.commit.op_class_0::SimdFloatMult            0      0.00%     61.28% # Class of committed instruction
system.cpu_cluster.cpus.commit.op_class_0::SimdFloatMultAcc            0      0.00%     61.28% # Class of committed instruction
system.cpu_cluster.cpus.commit.op_class_0::SimdFloatSqrt            0      0.00%     61.28% # Class of committed instruction
system.cpu_cluster.cpus.commit.op_class_0::SimdReduceAdd            0      0.00%     61.28% # Class of committed instruction
system.cpu_cluster.cpus.commit.op_class_0::SimdReduceAlu            0      0.00%     61.28% # Class of committed instruction
system.cpu_cluster.cpus.commit.op_class_0::SimdReduceCmp            0      0.00%     61.28% # Class of committed instruction
system.cpu_cluster.cpus.commit.op_class_0::SimdFloatReduceAdd            0      0.00%     61.28% # Class of committed instruction
system.cpu_cluster.cpus.commit.op_class_0::SimdFloatReduceCmp            0      0.00%     61.28% # Class of committed instruction
system.cpu_cluster.cpus.commit.op_class_0::SimdAes            0      0.00%     61.28% # Class of committed instruction
system.cpu_cluster.cpus.commit.op_class_0::SimdAesMix            0      0.00%     61.28% # Class of committed instruction
system.cpu_cluster.cpus.commit.op_class_0::SimdSha1Hash            0      0.00%     61.28% # Class of committed instruction
system.cpu_cluster.cpus.commit.op_class_0::SimdSha1Hash2            0      0.00%     61.28% # Class of committed instruction
system.cpu_cluster.cpus.commit.op_class_0::SimdSha256Hash            0      0.00%     61.28% # Class of committed instruction
system.cpu_cluster.cpus.commit.op_class_0::SimdSha256Hash2            0      0.00%     61.28% # Class of committed instruction
system.cpu_cluster.cpus.commit.op_class_0::SimdShaSigma2            0      0.00%     61.28% # Class of committed instruction
system.cpu_cluster.cpus.commit.op_class_0::SimdShaSigma3            0      0.00%     61.28% # Class of committed instruction
system.cpu_cluster.cpus.commit.op_class_0::SimdPredAlu            0      0.00%     61.28% # Class of committed instruction
system.cpu_cluster.cpus.commit.op_class_0::MemRead    115979772     24.48%     85.76% # Class of committed instruction
system.cpu_cluster.cpus.commit.op_class_0::MemWrite     67462673     14.24%    100.00% # Class of committed instruction
system.cpu_cluster.cpus.commit.op_class_0::FloatMemRead            0      0.00%    100.00% # Class of committed instruction
system.cpu_cluster.cpus.commit.op_class_0::FloatMemWrite            0      0.00%    100.00% # Class of committed instruction
system.cpu_cluster.cpus.commit.op_class_0::IprAccess            0      0.00%    100.00% # Class of committed instruction
system.cpu_cluster.cpus.commit.op_class_0::InstPrefetch            0      0.00%    100.00% # Class of committed instruction
system.cpu_cluster.cpus.commit.op_class_0::total    473733254                       # Class of committed instruction
system.cpu_cluster.cpus.commit.refs         183442445                       # Number of memory references committed
system.cpu_cluster.cpus.commit.swp_count            0                       # Number of s/w prefetches committed
system.cpu_cluster.cpus.commit.vec_insts       460226                       # Number of committed Vector instructions.
system.cpu_cluster.cpus.committedInsts      388657315                       # Number of Instructions Simulated
system.cpu_cluster.cpus.committedOps        473723263                       # Number of Ops (including micro ops) Simulated
system.cpu_cluster.cpus.cpi                  0.736670                       # CPI: Cycles Per Instruction
system.cpu_cluster.cpus.cpi_total            0.736670                       # CPI: Total CPI of All Threads
system.cpu_cluster.cpus.decode.BlockedCycles     52502922                       # Number of cycles decode is blocked
system.cpu_cluster.cpus.decode.BranchMispred        15084                       # Number of times decode detected a branch misprediction
system.cpu_cluster.cpus.decode.BranchResolved     16166348                       # Number of times decode resolved a branch
system.cpu_cluster.cpus.decode.DecodedInsts    535686200                       # Number of instructions handled by decode
system.cpu_cluster.cpus.decode.IdleCycles     26700718                       # Number of cycles decode is idle
system.cpu_cluster.cpus.decode.RunCycles    175334553                       # Number of cycles decode is running
system.cpu_cluster.cpus.decode.SquashCycles      2229861                       # Number of cycles decode is squashing
system.cpu_cluster.cpus.decode.SquashedInsts     10423157                       # Number of squashed instructions handled by decode
system.cpu_cluster.cpus.decode.UnblockCycles     29329732                       # Number of cycles decode is unblocking
system.cpu_cluster.cpus.dtb.accesses                0                       # DTB accesses
system.cpu_cluster.cpus.dtb.align_faults            0                       # Number of TLB faults due to alignment restrictions
system.cpu_cluster.cpus.dtb.domain_faults            0                       # Number of TLB faults due to domain restrictions
system.cpu_cluster.cpus.dtb.flush_entries            0                       # Number of entries that have been flushed from TLB
system.cpu_cluster.cpus.dtb.flush_tlb               0                       # Number of times complete TLB was flushed
system.cpu_cluster.cpus.dtb.flush_tlb_asid            0                       # Number of times TLB was flushed by ASID
system.cpu_cluster.cpus.dtb.flush_tlb_mva            0                       # Number of times TLB was flushed by MVA
system.cpu_cluster.cpus.dtb.flush_tlb_mva_asid            0                       # Number of times TLB was flushed by MVA & ASID
system.cpu_cluster.cpus.dtb.hits                    0                       # DTB hits
system.cpu_cluster.cpus.dtb.inst_accesses            0                       # ITB inst accesses
system.cpu_cluster.cpus.dtb.inst_hits               0                       # ITB inst hits
system.cpu_cluster.cpus.dtb.inst_misses             0                       # ITB inst misses
system.cpu_cluster.cpus.dtb.misses                  0                       # DTB misses
system.cpu_cluster.cpus.dtb.perms_faults            0                       # Number of TLB faults due to permissions restrictions
system.cpu_cluster.cpus.dtb.prefetch_faults            0                       # Number of TLB faults due to prefetch
system.cpu_cluster.cpus.dtb.read_accesses            0                       # DTB read accesses
system.cpu_cluster.cpus.dtb.read_hits               0                       # DTB read hits
system.cpu_cluster.cpus.dtb.read_misses             0                       # DTB read misses
system.cpu_cluster.cpus.dtb.stage2_mmu.stage2_tlb.accesses            0                       # DTB accesses
system.cpu_cluster.cpus.dtb.stage2_mmu.stage2_tlb.align_faults            0                       # Number of TLB faults due to alignment restrictions
system.cpu_cluster.cpus.dtb.stage2_mmu.stage2_tlb.domain_faults            0                       # Number of TLB faults due to domain restrictions
system.cpu_cluster.cpus.dtb.stage2_mmu.stage2_tlb.flush_entries            0                       # Number of entries that have been flushed from TLB
system.cpu_cluster.cpus.dtb.stage2_mmu.stage2_tlb.flush_tlb            0                       # Number of times complete TLB was flushed
system.cpu_cluster.cpus.dtb.stage2_mmu.stage2_tlb.flush_tlb_asid            0                       # Number of times TLB was flushed by ASID
system.cpu_cluster.cpus.dtb.stage2_mmu.stage2_tlb.flush_tlb_mva            0                       # Number of times TLB was flushed by MVA
system.cpu_cluster.cpus.dtb.stage2_mmu.stage2_tlb.flush_tlb_mva_asid            0                       # Number of times TLB was flushed by MVA & ASID
system.cpu_cluster.cpus.dtb.stage2_mmu.stage2_tlb.hits            0                       # DTB hits
system.cpu_cluster.cpus.dtb.stage2_mmu.stage2_tlb.inst_accesses            0                       # ITB inst accesses
system.cpu_cluster.cpus.dtb.stage2_mmu.stage2_tlb.inst_hits            0                       # ITB inst hits
system.cpu_cluster.cpus.dtb.stage2_mmu.stage2_tlb.inst_misses            0                       # ITB inst misses
system.cpu_cluster.cpus.dtb.stage2_mmu.stage2_tlb.misses            0                       # DTB misses
system.cpu_cluster.cpus.dtb.stage2_mmu.stage2_tlb.perms_faults            0                       # Number of TLB faults due to permissions restrictions
system.cpu_cluster.cpus.dtb.stage2_mmu.stage2_tlb.prefetch_faults            0                       # Number of TLB faults due to prefetch
system.cpu_cluster.cpus.dtb.stage2_mmu.stage2_tlb.read_accesses            0                       # DTB read accesses
system.cpu_cluster.cpus.dtb.stage2_mmu.stage2_tlb.read_hits            0                       # DTB read hits
system.cpu_cluster.cpus.dtb.stage2_mmu.stage2_tlb.read_misses            0                       # DTB read misses
system.cpu_cluster.cpus.dtb.stage2_mmu.stage2_tlb.walker.walkRequestOrigin_Requested::Data            0                       # Table walker requests started/completed, data/inst
system.cpu_cluster.cpus.dtb.stage2_mmu.stage2_tlb.walker.walkRequestOrigin_Requested::Inst            0                       # Table walker requests started/completed, data/inst
system.cpu_cluster.cpus.dtb.stage2_mmu.stage2_tlb.walker.walkRequestOrigin_Requested::total            0                       # Table walker requests started/completed, data/inst
system.cpu_cluster.cpus.dtb.stage2_mmu.stage2_tlb.walker.walkRequestOrigin_Completed::Data            0                       # Table walker requests started/completed, data/inst
system.cpu_cluster.cpus.dtb.stage2_mmu.stage2_tlb.walker.walkRequestOrigin_Completed::Inst            0                       # Table walker requests started/completed, data/inst
system.cpu_cluster.cpus.dtb.stage2_mmu.stage2_tlb.walker.walkRequestOrigin_Completed::total            0                       # Table walker requests started/completed, data/inst
system.cpu_cluster.cpus.dtb.stage2_mmu.stage2_tlb.walker.walkRequestOrigin::total            0                       # Table walker requests started/completed, data/inst
system.cpu_cluster.cpus.dtb.stage2_mmu.stage2_tlb.walker.walks            0                       # Table walker walks requested
system.cpu_cluster.cpus.dtb.stage2_mmu.stage2_tlb.write_accesses            0                       # DTB write accesses
system.cpu_cluster.cpus.dtb.stage2_mmu.stage2_tlb.write_hits            0                       # DTB write hits
system.cpu_cluster.cpus.dtb.stage2_mmu.stage2_tlb.write_misses            0                       # DTB write misses
system.cpu_cluster.cpus.dtb.walker.walkRequestOrigin_Requested::Data            0                       # Table walker requests started/completed, data/inst
system.cpu_cluster.cpus.dtb.walker.walkRequestOrigin_Requested::Inst            0                       # Table walker requests started/completed, data/inst
system.cpu_cluster.cpus.dtb.walker.walkRequestOrigin_Requested::total            0                       # Table walker requests started/completed, data/inst
system.cpu_cluster.cpus.dtb.walker.walkRequestOrigin_Completed::Data            0                       # Table walker requests started/completed, data/inst
system.cpu_cluster.cpus.dtb.walker.walkRequestOrigin_Completed::Inst            0                       # Table walker requests started/completed, data/inst
system.cpu_cluster.cpus.dtb.walker.walkRequestOrigin_Completed::total            0                       # Table walker requests started/completed, data/inst
system.cpu_cluster.cpus.dtb.walker.walkRequestOrigin::total            0                       # Table walker requests started/completed, data/inst
system.cpu_cluster.cpus.dtb.walker.walks            0                       # Table walker walks requested
system.cpu_cluster.cpus.dtb.write_accesses            0                       # DTB write accesses
system.cpu_cluster.cpus.dtb.write_hits              0                       # DTB write hits
system.cpu_cluster.cpus.dtb.write_misses            0                       # DTB write misses
system.cpu_cluster.cpus.fetch.Branches       59079646                       # Number of branches that fetch encountered
system.cpu_cluster.cpus.fetch.CacheLines    136931190                       # Number of cache lines fetched
system.cpu_cluster.cpus.fetch.Cycles        281176291                       # Number of cycles fetch has run and was not squashing or blocked
system.cpu_cluster.cpus.fetch.IcacheSquashes         5349                       # Number of outstanding Icache misses that were squashed
system.cpu_cluster.cpus.fetch.IcacheWaitRetryStallCycles         2427                       # Number of stall cycles due to full MSHR
system.cpu_cluster.cpus.fetch.Insts         479889146                       # Number of instructions fetch has processed
system.cpu_cluster.cpus.fetch.MiscStallCycles         1252                       # Number of cycles fetch has spent waiting on interrupts, or bad addresses, or out of MSHRs
system.cpu_cluster.cpus.fetch.SquashCycles      4489714                       # Number of cycles fetch has spent squashing
system.cpu_cluster.cpus.fetch.branchRate     0.206347                       # Number of branch fetches per cycle
system.cpu_cluster.cpus.fetch.icacheStallCycles      2672959                       # Number of cycles fetch is stalled on an Icache miss
system.cpu_cluster.cpus.fetch.predictedBranches     20299030                       # Number of branches that fetch has predicted taken
system.cpu_cluster.cpus.fetch.rate           1.676104                       # Number of inst fetches per cycle
system.cpu_cluster.cpus.fetch.rateDist::samples    286097786                       # Number of instructions fetched each cycle (Total)
system.cpu_cluster.cpus.fetch.rateDist::mean     2.038486                       # Number of instructions fetched each cycle (Total)
system.cpu_cluster.cpus.fetch.rateDist::stdev     1.054375                       # Number of instructions fetched each cycle (Total)
system.cpu_cluster.cpus.fetch.rateDist::underflows            0      0.00%      0.00% # Number of instructions fetched each cycle (Total)
system.cpu_cluster.cpus.fetch.rateDist::0     22720193      7.94%      7.94% # Number of instructions fetched each cycle (Total)
system.cpu_cluster.cpus.fetch.rateDist::1     85574306     29.91%     37.85% # Number of instructions fetched each cycle (Total)
system.cpu_cluster.cpus.fetch.rateDist::2     35777711     12.51%     50.36% # Number of instructions fetched each cycle (Total)
system.cpu_cluster.cpus.fetch.rateDist::3    142025576     49.64%    100.00% # Number of instructions fetched each cycle (Total)
system.cpu_cluster.cpus.fetch.rateDist::overflows            0      0.00%    100.00% # Number of instructions fetched each cycle (Total)
system.cpu_cluster.cpus.fetch.rateDist::min_value            0                       # Number of instructions fetched each cycle (Total)
system.cpu_cluster.cpus.fetch.rateDist::max_value            3                       # Number of instructions fetched each cycle (Total)
system.cpu_cluster.cpus.fetch.rateDist::total    286097786                       # Number of instructions fetched each cycle (Total)
system.cpu_cluster.cpus.idleCycles             214456                       # Total number of cycles that the CPU has spent unscheduled due to idling
system.cpu_cluster.cpus.iew.branchMispredicts      2245615                       # Number of branch mispredicts detected at execute
system.cpu_cluster.cpus.iew.exec_branches     49282420                       # Number of branches executed
system.cpu_cluster.cpus.iew.exec_nop            11379                       # number of nop insts executed
system.cpu_cluster.cpus.iew.exec_rate        1.728275                       # Inst execution rate
system.cpu_cluster.cpus.iew.exec_refs       189164334                       # number of memory reference insts executed
system.cpu_cluster.cpus.iew.exec_stores      68260228                       # Number of stores executed
system.cpu_cluster.cpus.iew.exec_swp                0                       # number of swp insts executed
system.cpu_cluster.cpus.iew.iewBlockCycles      4591009                       # Number of cycles IEW is blocking
system.cpu_cluster.cpus.iew.iewDispLoadInsts    129656295                       # Number of dispatched load instructions
system.cpu_cluster.cpus.iew.iewDispNonSpecInsts        29663                       # Number of dispatched non-speculative instructions
system.cpu_cluster.cpus.iew.iewDispSquashedInsts            0                       # Number of squashed instructions skipped by dispatch
system.cpu_cluster.cpus.iew.iewDispStoreInsts     69834334                       # Number of dispatched store instructions
system.cpu_cluster.cpus.iew.iewDispatchedInsts    521302694                       # Number of instructions dispatched to IQ
system.cpu_cluster.cpus.iew.iewExecLoadInsts    120904106                       # Number of load instructions executed
system.cpu_cluster.cpus.iew.iewExecSquashedInsts      3195249                       # Number of squashed instructions skipped in execute
system.cpu_cluster.cpus.iew.iewExecutedInsts    494826412                       # Number of executed instructions
system.cpu_cluster.cpus.iew.iewIQFullEvents         8346                       # Number of times the IQ has become full, causing a stall
system.cpu_cluster.cpus.iew.iewIdleCycles            0                       # Number of cycles IEW is idle
system.cpu_cluster.cpus.iew.iewLSQFullEvents        27660                       # Number of times the LSQ has become full, causing a stall
system.cpu_cluster.cpus.iew.iewSquashCycles      2229861                       # Number of cycles IEW is squashing
system.cpu_cluster.cpus.iew.iewUnblockCycles        40938                       # Number of cycles IEW is unblocking
system.cpu_cluster.cpus.iew.lsq.thread0.blockedLoads            0                       # Number of blocked loads due to partial load-store forwarding
system.cpu_cluster.cpus.iew.lsq.thread0.cacheBlocked         9659                       # Number of times an access to memory failed due to the cache being blocked
system.cpu_cluster.cpus.iew.lsq.thread0.forwLoads      5288618                       # Number of loads that had data forwarded from stores
system.cpu_cluster.cpus.iew.lsq.thread0.ignoredResponses       111268                       # Number of memory responses ignored because the instruction is squashed
system.cpu_cluster.cpus.iew.lsq.thread0.invAddrLoads            0                       # Number of loads ignored due to an invalid address
system.cpu_cluster.cpus.iew.lsq.thread0.invAddrSwpfs            0                       # Number of software prefetches ignored due to an invalid address
system.cpu_cluster.cpus.iew.lsq.thread0.memOrderViolation         1976                       # Number of memory ordering violations
system.cpu_cluster.cpus.iew.lsq.thread0.rescheduledLoads       270018                       # Number of loads that were rescheduled
system.cpu_cluster.cpus.iew.lsq.thread0.squashedLoads     13676523                       # Number of loads squashed
system.cpu_cluster.cpus.iew.lsq.thread0.squashedStores      2371661                       # Number of stores squashed
system.cpu_cluster.cpus.iew.memOrderViolationEvents         1976                       # Number of memory order violations
system.cpu_cluster.cpus.iew.predictedNotTakenIncorrect      1219148                       # Number of branches that were predicted not taken incorrectly
system.cpu_cluster.cpus.iew.predictedTakenIncorrect      1026467                       # Number of branches that were predicted taken incorrectly
system.cpu_cluster.cpus.iew.wb_consumers    509207970                       # num instructions consuming a value
system.cpu_cluster.cpus.iew.wb_count        492905874                       # cumulative count of insts written-back
system.cpu_cluster.cpus.iew.wb_fanout        0.583529                       # average fanout of values written-back
system.cpu_cluster.cpus.iew.wb_producers    297137633                       # num instructions producing a value
system.cpu_cluster.cpus.iew.wb_rate          1.721568                       # insts written-back per cycle
system.cpu_cluster.cpus.iew.wb_sent         493732262                       # cumulative count of insts sent to commit
system.cpu_cluster.cpus.int_regfile_reads    639370467                       # number of integer regfile reads
system.cpu_cluster.cpus.int_regfile_writes    417524201                       # number of integer regfile writes
system.cpu_cluster.cpus.ipc                  1.357460                       # IPC: Instructions Per Cycle
system.cpu_cluster.cpus.ipc_total            1.357460                       # IPC: Total IPC of All Threads
system.cpu_cluster.cpus.iq.FU_type_0::No_OpClass        29534      0.01%      0.01% # Type of FU issued
system.cpu_cluster.cpus.iq.FU_type_0::IntAlu    306869334     61.62%     61.62% # Type of FU issued
system.cpu_cluster.cpus.iq.FU_type_0::IntMult        12662      0.00%     61.63% # Type of FU issued
system.cpu_cluster.cpus.iq.FU_type_0::IntDiv           45      0.00%     61.63% # Type of FU issued
system.cpu_cluster.cpus.iq.FU_type_0::FloatAdd         2208      0.00%     61.63% # Type of FU issued
system.cpu_cluster.cpus.iq.FU_type_0::FloatCmp           12      0.00%     61.63% # Type of FU issued
system.cpu_cluster.cpus.iq.FU_type_0::FloatCvt         2218      0.00%     61.63% # Type of FU issued
system.cpu_cluster.cpus.iq.FU_type_0::FloatMult            0      0.00%     61.63% # Type of FU issued
system.cpu_cluster.cpus.iq.FU_type_0::FloatMultAcc            0      0.00%     61.63% # Type of FU issued
system.cpu_cluster.cpus.iq.FU_type_0::FloatDiv         2211      0.00%     61.63% # Type of FU issued
system.cpu_cluster.cpus.iq.FU_type_0::FloatMisc         9249      0.00%     61.63% # Type of FU issued
system.cpu_cluster.cpus.iq.FU_type_0::FloatSqrt            0      0.00%     61.63% # Type of FU issued
system.cpu_cluster.cpus.iq.FU_type_0::SimdAdd         8503      0.00%     61.63% # Type of FU issued
system.cpu_cluster.cpus.iq.FU_type_0::SimdAddAcc            0      0.00%     61.63% # Type of FU issued
system.cpu_cluster.cpus.iq.FU_type_0::SimdAlu         8523      0.00%     61.63% # Type of FU issued
system.cpu_cluster.cpus.iq.FU_type_0::SimdCmp         9298      0.00%     61.63% # Type of FU issued
system.cpu_cluster.cpus.iq.FU_type_0::SimdCvt            2      0.00%     61.63% # Type of FU issued
system.cpu_cluster.cpus.iq.FU_type_0::SimdMisc       147391      0.03%     61.66% # Type of FU issued
system.cpu_cluster.cpus.iq.FU_type_0::SimdMult            0      0.00%     61.66% # Type of FU issued
system.cpu_cluster.cpus.iq.FU_type_0::SimdMultAcc            0      0.00%     61.66% # Type of FU issued
system.cpu_cluster.cpus.iq.FU_type_0::SimdShift            2      0.00%     61.66% # Type of FU issued
system.cpu_cluster.cpus.iq.FU_type_0::SimdShiftAcc            0      0.00%     61.66% # Type of FU issued
system.cpu_cluster.cpus.iq.FU_type_0::SimdDiv            0      0.00%     61.66% # Type of FU issued
system.cpu_cluster.cpus.iq.FU_type_0::SimdSqrt            0      0.00%     61.66% # Type of FU issued
system.cpu_cluster.cpus.iq.FU_type_0::SimdFloatAdd            0      0.00%     61.66% # Type of FU issued
system.cpu_cluster.cpus.iq.FU_type_0::SimdFloatAlu            0      0.00%     61.66% # Type of FU issued
system.cpu_cluster.cpus.iq.FU_type_0::SimdFloatCmp            0      0.00%     61.66% # Type of FU issued
system.cpu_cluster.cpus.iq.FU_type_0::SimdFloatCvt            0      0.00%     61.66% # Type of FU issued
system.cpu_cluster.cpus.iq.FU_type_0::SimdFloatDiv            0      0.00%     61.66% # Type of FU issued
system.cpu_cluster.cpus.iq.FU_type_0::SimdFloatMisc            0      0.00%     61.66% # Type of FU issued
system.cpu_cluster.cpus.iq.FU_type_0::SimdFloatMult            0      0.00%     61.66% # Type of FU issued
system.cpu_cluster.cpus.iq.FU_type_0::SimdFloatMultAcc            0      0.00%     61.66% # Type of FU issued
system.cpu_cluster.cpus.iq.FU_type_0::SimdFloatSqrt            0      0.00%     61.66% # Type of FU issued
system.cpu_cluster.cpus.iq.FU_type_0::SimdReduceAdd            0      0.00%     61.66% # Type of FU issued
system.cpu_cluster.cpus.iq.FU_type_0::SimdReduceAlu            0      0.00%     61.66% # Type of FU issued
system.cpu_cluster.cpus.iq.FU_type_0::SimdReduceCmp            0      0.00%     61.66% # Type of FU issued
system.cpu_cluster.cpus.iq.FU_type_0::SimdFloatReduceAdd            0      0.00%     61.66% # Type of FU issued
system.cpu_cluster.cpus.iq.FU_type_0::SimdFloatReduceCmp            0      0.00%     61.66% # Type of FU issued
system.cpu_cluster.cpus.iq.FU_type_0::SimdAes            0      0.00%     61.66% # Type of FU issued
system.cpu_cluster.cpus.iq.FU_type_0::SimdAesMix            0      0.00%     61.66% # Type of FU issued
system.cpu_cluster.cpus.iq.FU_type_0::SimdSha1Hash            0      0.00%     61.66% # Type of FU issued
system.cpu_cluster.cpus.iq.FU_type_0::SimdSha1Hash2            0      0.00%     61.66% # Type of FU issued
system.cpu_cluster.cpus.iq.FU_type_0::SimdSha256Hash            0      0.00%     61.66% # Type of FU issued
system.cpu_cluster.cpus.iq.FU_type_0::SimdSha256Hash2            0      0.00%     61.66% # Type of FU issued
system.cpu_cluster.cpus.iq.FU_type_0::SimdShaSigma2            0      0.00%     61.66% # Type of FU issued
system.cpu_cluster.cpus.iq.FU_type_0::SimdShaSigma3            0      0.00%     61.66% # Type of FU issued
system.cpu_cluster.cpus.iq.FU_type_0::SimdPredAlu            0      0.00%     61.66% # Type of FU issued
system.cpu_cluster.cpus.iq.FU_type_0::MemRead    122181050     24.53%     86.20% # Type of FU issued
system.cpu_cluster.cpus.iq.FU_type_0::MemWrite     68739419     13.80%    100.00% # Type of FU issued
system.cpu_cluster.cpus.iq.FU_type_0::FloatMemRead            0      0.00%    100.00% # Type of FU issued
system.cpu_cluster.cpus.iq.FU_type_0::FloatMemWrite            0      0.00%    100.00% # Type of FU issued
system.cpu_cluster.cpus.iq.FU_type_0::IprAccess            0      0.00%    100.00% # Type of FU issued
system.cpu_cluster.cpus.iq.FU_type_0::InstPrefetch            0      0.00%    100.00% # Type of FU issued
system.cpu_cluster.cpus.iq.FU_type_0::total    498021661                       # Type of FU issued
system.cpu_cluster.cpus.iq.fp_alu_accesses            0                       # Number of floating point alu accesses
system.cpu_cluster.cpus.iq.fp_inst_queue_reads            0                       # Number of floating instruction queue reads
system.cpu_cluster.cpus.iq.fp_inst_queue_wakeup_accesses            0                       # Number of floating instruction queue wakeup accesses
system.cpu_cluster.cpus.iq.fp_inst_queue_writes            0                       # Number of floating instruction queue writes
system.cpu_cluster.cpus.iq.fu_busy_cnt      147485555                       # FU busy when requested
system.cpu_cluster.cpus.iq.fu_busy_rate      0.296143                       # FU busy rate (busy events/executed inst)
system.cpu_cluster.cpus.iq.fu_full::No_OpClass            0      0.00%      0.00% # attempts to use FU when none available
system.cpu_cluster.cpus.iq.fu_full::IntAlu     55054836     37.33%     37.33% # attempts to use FU when none available
system.cpu_cluster.cpus.iq.fu_full::IntMult          100      0.00%     37.33% # attempts to use FU when none available
system.cpu_cluster.cpus.iq.fu_full::IntDiv            3      0.00%     37.33% # attempts to use FU when none available
system.cpu_cluster.cpus.iq.fu_full::FloatAdd            1      0.00%     37.33% # attempts to use FU when none available
system.cpu_cluster.cpus.iq.fu_full::FloatCmp            0      0.00%     37.33% # attempts to use FU when none available
system.cpu_cluster.cpus.iq.fu_full::FloatCvt            0      0.00%     37.33% # attempts to use FU when none available
system.cpu_cluster.cpus.iq.fu_full::FloatMult            0      0.00%     37.33% # attempts to use FU when none available
system.cpu_cluster.cpus.iq.fu_full::FloatMultAcc            0      0.00%     37.33% # attempts to use FU when none available
system.cpu_cluster.cpus.iq.fu_full::FloatDiv            0      0.00%     37.33% # attempts to use FU when none available
system.cpu_cluster.cpus.iq.fu_full::FloatMisc            5      0.00%     37.33% # attempts to use FU when none available
system.cpu_cluster.cpus.iq.fu_full::FloatSqrt            0      0.00%     37.33% # attempts to use FU when none available
system.cpu_cluster.cpus.iq.fu_full::SimdAdd            0      0.00%     37.33% # attempts to use FU when none available
system.cpu_cluster.cpus.iq.fu_full::SimdAddAcc            0      0.00%     37.33% # attempts to use FU when none available
system.cpu_cluster.cpus.iq.fu_full::SimdAlu            0      0.00%     37.33% # attempts to use FU when none available
system.cpu_cluster.cpus.iq.fu_full::SimdCmp            0      0.00%     37.33% # attempts to use FU when none available
system.cpu_cluster.cpus.iq.fu_full::SimdCvt            0      0.00%     37.33% # attempts to use FU when none available
system.cpu_cluster.cpus.iq.fu_full::SimdMisc            0      0.00%     37.33% # attempts to use FU when none available
system.cpu_cluster.cpus.iq.fu_full::SimdMult            0      0.00%     37.33% # attempts to use FU when none available
system.cpu_cluster.cpus.iq.fu_full::SimdMultAcc            0      0.00%     37.33% # attempts to use FU when none available
system.cpu_cluster.cpus.iq.fu_full::SimdShift            1      0.00%     37.33% # attempts to use FU when none available
system.cpu_cluster.cpus.iq.fu_full::SimdShiftAcc            0      0.00%     37.33% # attempts to use FU when none available
system.cpu_cluster.cpus.iq.fu_full::SimdDiv            0      0.00%     37.33% # attempts to use FU when none available
system.cpu_cluster.cpus.iq.fu_full::SimdSqrt            0      0.00%     37.33% # attempts to use FU when none available
system.cpu_cluster.cpus.iq.fu_full::SimdFloatAdd            0      0.00%     37.33% # attempts to use FU when none available
system.cpu_cluster.cpus.iq.fu_full::SimdFloatAlu            0      0.00%     37.33% # attempts to use FU when none available
system.cpu_cluster.cpus.iq.fu_full::SimdFloatCmp            0      0.00%     37.33% # attempts to use FU when none available
system.cpu_cluster.cpus.iq.fu_full::SimdFloatCvt            0      0.00%     37.33% # attempts to use FU when none available
system.cpu_cluster.cpus.iq.fu_full::SimdFloatDiv            0      0.00%     37.33% # attempts to use FU when none available
system.cpu_cluster.cpus.iq.fu_full::SimdFloatMisc            0      0.00%     37.33% # attempts to use FU when none available
system.cpu_cluster.cpus.iq.fu_full::SimdFloatMult            0      0.00%     37.33% # attempts to use FU when none available
system.cpu_cluster.cpus.iq.fu_full::SimdFloatMultAcc            0      0.00%     37.33% # attempts to use FU when none available
system.cpu_cluster.cpus.iq.fu_full::SimdFloatSqrt            0      0.00%     37.33% # attempts to use FU when none available
system.cpu_cluster.cpus.iq.fu_full::SimdReduceAdd            0      0.00%     37.33% # attempts to use FU when none available
system.cpu_cluster.cpus.iq.fu_full::SimdReduceAlu            0      0.00%     37.33% # attempts to use FU when none available
system.cpu_cluster.cpus.iq.fu_full::SimdReduceCmp            0      0.00%     37.33% # attempts to use FU when none available
system.cpu_cluster.cpus.iq.fu_full::SimdFloatReduceAdd            0      0.00%     37.33% # attempts to use FU when none available
system.cpu_cluster.cpus.iq.fu_full::SimdFloatReduceCmp            0      0.00%     37.33% # attempts to use FU when none available
system.cpu_cluster.cpus.iq.fu_full::SimdAes            0      0.00%     37.33% # attempts to use FU when none available
system.cpu_cluster.cpus.iq.fu_full::SimdAesMix            0      0.00%     37.33% # attempts to use FU when none available
system.cpu_cluster.cpus.iq.fu_full::SimdSha1Hash            0      0.00%     37.33% # attempts to use FU when none available
system.cpu_cluster.cpus.iq.fu_full::SimdSha1Hash2            0      0.00%     37.33% # attempts to use FU when none available
system.cpu_cluster.cpus.iq.fu_full::SimdSha256Hash            0      0.00%     37.33% # attempts to use FU when none available
system.cpu_cluster.cpus.iq.fu_full::SimdSha256Hash2            0      0.00%     37.33% # attempts to use FU when none available
system.cpu_cluster.cpus.iq.fu_full::SimdShaSigma2            0      0.00%     37.33% # attempts to use FU when none available
system.cpu_cluster.cpus.iq.fu_full::SimdShaSigma3            0      0.00%     37.33% # attempts to use FU when none available
system.cpu_cluster.cpus.iq.fu_full::SimdPredAlu            0      0.00%     37.33% # attempts to use FU when none available
system.cpu_cluster.cpus.iq.fu_full::MemRead     49762417     33.74%     71.07% # attempts to use FU when none available
system.cpu_cluster.cpus.iq.fu_full::MemWrite     42668192     28.93%    100.00% # attempts to use FU when none available
system.cpu_cluster.cpus.iq.fu_full::FloatMemRead            0      0.00%    100.00% # attempts to use FU when none available
system.cpu_cluster.cpus.iq.fu_full::FloatMemWrite            0      0.00%    100.00% # attempts to use FU when none available
system.cpu_cluster.cpus.iq.fu_full::IprAccess            0      0.00%    100.00% # attempts to use FU when none available
system.cpu_cluster.cpus.iq.fu_full::InstPrefetch            0      0.00%    100.00% # attempts to use FU when none available
system.cpu_cluster.cpus.iq.int_alu_accesses    644806103                       # Number of integer alu accesses
system.cpu_cluster.cpus.iq.int_inst_queue_reads   1430123378                       # Number of integer instruction queue reads
system.cpu_cluster.cpus.iq.int_inst_queue_wakeup_accesses    492444132                       # Number of integer instruction queue wakeup accesses
system.cpu_cluster.cpus.iq.int_inst_queue_writes    568377694                       # Number of integer instruction queue writes
system.cpu_cluster.cpus.iq.iqInstsAdded     521261651                       # Number of instructions added to the IQ (excludes non-spec)
system.cpu_cluster.cpus.iq.iqInstsIssued    498021661                       # Number of instructions issued
system.cpu_cluster.cpus.iq.iqNonSpecInstsAdded        29664                       # Number of non-speculative instructions added to the IQ
system.cpu_cluster.cpus.iq.iqSquashedInstsExamined     47568051                       # Number of squashed instructions iterated over during squash; mainly for profiling
system.cpu_cluster.cpus.iq.iqSquashedInstsIssued      1642274                       # Number of squashed instructions issued
system.cpu_cluster.cpus.iq.iqSquashedNonSpecRemoved         3106                       # Number of squashed non-spec instructions that were removed
system.cpu_cluster.cpus.iq.iqSquashedOperandsExamined     46770234                       # Number of squashed operands that are examined and possibly removed from graph
system.cpu_cluster.cpus.iq.issued_per_cycle::samples    286097786                       # Number of insts issued each cycle
system.cpu_cluster.cpus.iq.issued_per_cycle::mean     1.740739                       # Number of insts issued each cycle
system.cpu_cluster.cpus.iq.issued_per_cycle::stdev     1.102859                       # Number of insts issued each cycle
system.cpu_cluster.cpus.iq.issued_per_cycle::underflows            0      0.00%      0.00% # Number of insts issued each cycle
system.cpu_cluster.cpus.iq.issued_per_cycle::0     48203925     16.85%     16.85% # Number of insts issued each cycle
system.cpu_cluster.cpus.iq.issued_per_cycle::1     65528479     22.90%     39.75% # Number of insts issued each cycle
system.cpu_cluster.cpus.iq.issued_per_cycle::2     95152678     33.26%     73.01% # Number of insts issued each cycle
system.cpu_cluster.cpus.iq.issued_per_cycle::3     66665127     23.30%     96.31% # Number of insts issued each cycle
system.cpu_cluster.cpus.iq.issued_per_cycle::4     10545440      3.69%    100.00% # Number of insts issued each cycle
system.cpu_cluster.cpus.iq.issued_per_cycle::5         2137      0.00%    100.00% # Number of insts issued each cycle
system.cpu_cluster.cpus.iq.issued_per_cycle::6            0      0.00%    100.00% # Number of insts issued each cycle
system.cpu_cluster.cpus.iq.issued_per_cycle::7            0      0.00%    100.00% # Number of insts issued each cycle
system.cpu_cluster.cpus.iq.issued_per_cycle::8            0      0.00%    100.00% # Number of insts issued each cycle
system.cpu_cluster.cpus.iq.issued_per_cycle::overflows            0      0.00%    100.00% # Number of insts issued each cycle
system.cpu_cluster.cpus.iq.issued_per_cycle::min_value            0                       # Number of insts issued each cycle
system.cpu_cluster.cpus.iq.issued_per_cycle::max_value            5                       # Number of insts issued each cycle
system.cpu_cluster.cpus.iq.issued_per_cycle::total    286097786                       # Number of insts issued each cycle
system.cpu_cluster.cpus.iq.rate              1.739435                       # Inst issue rate
system.cpu_cluster.cpus.iq.vec_alu_accesses       671579                       # Number of vector alu accesses
system.cpu_cluster.cpus.iq.vec_inst_queue_reads      1145559                       # Number of vector instruction queue reads
system.cpu_cluster.cpus.iq.vec_inst_queue_wakeup_accesses       461742                       # Number of vector instruction queue wakeup accesses
system.cpu_cluster.cpus.iq.vec_inst_queue_writes       483632                       # Number of vector instruction queue writes
system.cpu_cluster.cpus.itb.accesses                0                       # DTB accesses
system.cpu_cluster.cpus.itb.align_faults            0                       # Number of TLB faults due to alignment restrictions
system.cpu_cluster.cpus.itb.domain_faults            0                       # Number of TLB faults due to domain restrictions
system.cpu_cluster.cpus.itb.flush_entries            0                       # Number of entries that have been flushed from TLB
system.cpu_cluster.cpus.itb.flush_tlb               0                       # Number of times complete TLB was flushed
system.cpu_cluster.cpus.itb.flush_tlb_asid            0                       # Number of times TLB was flushed by ASID
system.cpu_cluster.cpus.itb.flush_tlb_mva            0                       # Number of times TLB was flushed by MVA
system.cpu_cluster.cpus.itb.flush_tlb_mva_asid            0                       # Number of times TLB was flushed by MVA & ASID
system.cpu_cluster.cpus.itb.hits                    0                       # DTB hits
system.cpu_cluster.cpus.itb.inst_accesses            0                       # ITB inst accesses
system.cpu_cluster.cpus.itb.inst_hits               0                       # ITB inst hits
system.cpu_cluster.cpus.itb.inst_misses             0                       # ITB inst misses
system.cpu_cluster.cpus.itb.misses                  0                       # DTB misses
system.cpu_cluster.cpus.itb.perms_faults            0                       # Number of TLB faults due to permissions restrictions
system.cpu_cluster.cpus.itb.prefetch_faults            0                       # Number of TLB faults due to prefetch
system.cpu_cluster.cpus.itb.read_accesses            0                       # DTB read accesses
system.cpu_cluster.cpus.itb.read_hits               0                       # DTB read hits
system.cpu_cluster.cpus.itb.read_misses             0                       # DTB read misses
system.cpu_cluster.cpus.itb.stage2_mmu.stage2_tlb.accesses            0                       # DTB accesses
system.cpu_cluster.cpus.itb.stage2_mmu.stage2_tlb.align_faults            0                       # Number of TLB faults due to alignment restrictions
system.cpu_cluster.cpus.itb.stage2_mmu.stage2_tlb.domain_faults            0                       # Number of TLB faults due to domain restrictions
system.cpu_cluster.cpus.itb.stage2_mmu.stage2_tlb.flush_entries            0                       # Number of entries that have been flushed from TLB
system.cpu_cluster.cpus.itb.stage2_mmu.stage2_tlb.flush_tlb            0                       # Number of times complete TLB was flushed
system.cpu_cluster.cpus.itb.stage2_mmu.stage2_tlb.flush_tlb_asid            0                       # Number of times TLB was flushed by ASID
system.cpu_cluster.cpus.itb.stage2_mmu.stage2_tlb.flush_tlb_mva            0                       # Number of times TLB was flushed by MVA
system.cpu_cluster.cpus.itb.stage2_mmu.stage2_tlb.flush_tlb_mva_asid            0                       # Number of times TLB was flushed by MVA & ASID
system.cpu_cluster.cpus.itb.stage2_mmu.stage2_tlb.hits            0                       # DTB hits
system.cpu_cluster.cpus.itb.stage2_mmu.stage2_tlb.inst_accesses            0                       # ITB inst accesses
system.cpu_cluster.cpus.itb.stage2_mmu.stage2_tlb.inst_hits            0                       # ITB inst hits
system.cpu_cluster.cpus.itb.stage2_mmu.stage2_tlb.inst_misses            0                       # ITB inst misses
system.cpu_cluster.cpus.itb.stage2_mmu.stage2_tlb.misses            0                       # DTB misses
system.cpu_cluster.cpus.itb.stage2_mmu.stage2_tlb.perms_faults            0                       # Number of TLB faults due to permissions restrictions
system.cpu_cluster.cpus.itb.stage2_mmu.stage2_tlb.prefetch_faults            0                       # Number of TLB faults due to prefetch
system.cpu_cluster.cpus.itb.stage2_mmu.stage2_tlb.read_accesses            0                       # DTB read accesses
system.cpu_cluster.cpus.itb.stage2_mmu.stage2_tlb.read_hits            0                       # DTB read hits
system.cpu_cluster.cpus.itb.stage2_mmu.stage2_tlb.read_misses            0                       # DTB read misses
system.cpu_cluster.cpus.itb.stage2_mmu.stage2_tlb.walker.walkRequestOrigin_Requested::Data            0                       # Table walker requests started/completed, data/inst
system.cpu_cluster.cpus.itb.stage2_mmu.stage2_tlb.walker.walkRequestOrigin_Requested::Inst            0                       # Table walker requests started/completed, data/inst
system.cpu_cluster.cpus.itb.stage2_mmu.stage2_tlb.walker.walkRequestOrigin_Requested::total            0                       # Table walker requests started/completed, data/inst
system.cpu_cluster.cpus.itb.stage2_mmu.stage2_tlb.walker.walkRequestOrigin_Completed::Data            0                       # Table walker requests started/completed, data/inst
system.cpu_cluster.cpus.itb.stage2_mmu.stage2_tlb.walker.walkRequestOrigin_Completed::Inst            0                       # Table walker requests started/completed, data/inst
system.cpu_cluster.cpus.itb.stage2_mmu.stage2_tlb.walker.walkRequestOrigin_Completed::total            0                       # Table walker requests started/completed, data/inst
system.cpu_cluster.cpus.itb.stage2_mmu.stage2_tlb.walker.walkRequestOrigin::total            0                       # Table walker requests started/completed, data/inst
system.cpu_cluster.cpus.itb.stage2_mmu.stage2_tlb.walker.walks            0                       # Table walker walks requested
system.cpu_cluster.cpus.itb.stage2_mmu.stage2_tlb.write_accesses            0                       # DTB write accesses
system.cpu_cluster.cpus.itb.stage2_mmu.stage2_tlb.write_hits            0                       # DTB write hits
system.cpu_cluster.cpus.itb.stage2_mmu.stage2_tlb.write_misses            0                       # DTB write misses
system.cpu_cluster.cpus.itb.walker.walkRequestOrigin_Requested::Data            0                       # Table walker requests started/completed, data/inst
system.cpu_cluster.cpus.itb.walker.walkRequestOrigin_Requested::Inst            0                       # Table walker requests started/completed, data/inst
system.cpu_cluster.cpus.itb.walker.walkRequestOrigin_Requested::total            0                       # Table walker requests started/completed, data/inst
system.cpu_cluster.cpus.itb.walker.walkRequestOrigin_Completed::Data            0                       # Table walker requests started/completed, data/inst
system.cpu_cluster.cpus.itb.walker.walkRequestOrigin_Completed::Inst            0                       # Table walker requests started/completed, data/inst
system.cpu_cluster.cpus.itb.walker.walkRequestOrigin_Completed::total            0                       # Table walker requests started/completed, data/inst
system.cpu_cluster.cpus.itb.walker.walkRequestOrigin::total            0                       # Table walker requests started/completed, data/inst
system.cpu_cluster.cpus.itb.walker.walks            0                       # Table walker walks requested
system.cpu_cluster.cpus.itb.write_accesses            0                       # DTB write accesses
system.cpu_cluster.cpus.itb.write_hits              0                       # DTB write hits
system.cpu_cluster.cpus.itb.write_misses            0                       # DTB write misses
system.cpu_cluster.cpus.memDep0.conflictingLoads      4447685                       # Number of conflicting loads.
system.cpu_cluster.cpus.memDep0.conflictingStores       830057                       # Number of conflicting stores.
system.cpu_cluster.cpus.memDep0.insertedLoads    129656295                       # Number of loads inserted to the mem dependence unit.
system.cpu_cluster.cpus.memDep0.insertedStores     69834334                       # Number of stores inserted to the mem dependence unit.
system.cpu_cluster.cpus.misc_regfile_reads    494677150                       # number of misc regfile reads
system.cpu_cluster.cpus.misc_regfile_writes         7229                       # number of misc regfile writes
system.cpu_cluster.cpus.numCycles           286312242                       # number of cpu cycles simulated
system.cpu_cluster.cpus.numWorkItemsCompleted            0                       # number of work items this cpu completed
system.cpu_cluster.cpus.numWorkItemsStarted            0                       # number of work items this cpu started
system.cpu_cluster.cpus.rename.BlockCycles     15503738                       # Number of cycles rename is blocking
system.cpu_cluster.cpus.rename.CommittedMaps    548194872                       # Number of HB maps that are committed
system.cpu_cluster.cpus.rename.FullRegisterEvents         5119                       # Number of times there has been no free registers
system.cpu_cluster.cpus.rename.IQFullEvents       905170                       # Number of times rename has blocked due to IQ full
system.cpu_cluster.cpus.rename.IdleCycles     47422394                       # Number of cycles rename is idle
system.cpu_cluster.cpus.rename.LQFullEvents       184723                       # Number of times rename has blocked due to LQ full
system.cpu_cluster.cpus.rename.ROBFullEvents     20732676                       # Number of times rename has blocked due to ROB full
system.cpu_cluster.cpus.rename.RenameLookups    845246370                       # Number of register rename lookups that rename has made
system.cpu_cluster.cpus.rename.RenamedInsts    525540517                       # Number of instructions processed by rename
system.cpu_cluster.cpus.rename.RenamedOperands    612654069                       # Number of destination operands rename has renamed
system.cpu_cluster.cpus.rename.RunCycles    182316448                       # Number of cycles rename is running
system.cpu_cluster.cpus.rename.SQFullEvents      7206561                       # Number of times rename has blocked due to SQ full
system.cpu_cluster.cpus.rename.SquashCycles      2229861                       # Number of cycles rename is squashing
system.cpu_cluster.cpus.rename.SquashedInsts      4318870                       # Number of squashed instructions processed by rename
system.cpu_cluster.cpus.rename.UnblockCycles     38291040                       # Number of cycles rename is unblocking
system.cpu_cluster.cpus.rename.UndoneMaps     64459197                       # Number of HB maps that are undone due to squashing
system.cpu_cluster.cpus.rename.int_rename_lookups    678618658                       # Number of integer rename lookups
system.cpu_cluster.cpus.rename.serializeStallCycles       334305                       # count of cycles rename stalled for serializing inst
system.cpu_cluster.cpus.rename.serializingInsts        21496                       # count of serializing insts renamed
system.cpu_cluster.cpus.rename.skidInsts     58718519                       # count of insts added to the skid buffer
system.cpu_cluster.cpus.rename.tempSerializingInsts         4569                       # count of temporary serializing insts renamed
system.cpu_cluster.cpus.rename.vec_rename_lookups       351902                       # Number of vector rename lookups
system.cpu_cluster.cpus.rob.rob_reads       783579890                       # The number of ROB reads
system.cpu_cluster.cpus.rob.rob_writes     1041641984                       # The number of ROB writes
system.cpu_cluster.cpus.timesIdled               1545                       # Number of times that the entire CPU went into an idle state and unscheduled itself
system.cpu_cluster.cpus.vec_regfile_reads       343899                       # number of vector regfile reads
system.cpu_cluster.cpus.vec_regfile_writes       202416                       # number of vector regfile writes
system.cpu_cluster.cpus.workload.numSyscalls         4472                       # Number of system calls
system.cpu_cluster.l2.prefetcher.num_hwpf_issued        22378                       # number of hwpf issued
system.cpu_cluster.l2.prefetcher.pfBufferHit           24                       # number of redundant prefetches already in prefetch queue
system.cpu_cluster.l2.prefetcher.pfIdentified        22405                       # number of prefetch candidates identified
system.cpu_cluster.l2.prefetcher.pfInCache            0                       # number of redundant prefetches already in cache/mshr dropped
system.cpu_cluster.l2.prefetcher.pfRemovedFull            0                       # number of prefetches dropped due to prefetch queue size
system.cpu_cluster.l2.prefetcher.pfSpanPage         3411                       # number of prefetches that crossed the page
system.cpu_cluster.toL2Bus.snoop_filter.hit_multi_requests            2                       # Number of requests hitting in the snoop filter with multiple (>1) holders of the requested data.
system.cpu_cluster.toL2Bus.snoop_filter.hit_multi_snoops            0                       # Number of snoops hitting in the snoop filter with multiple (>1) holders of the requested data.
system.cpu_cluster.toL2Bus.snoop_filter.hit_single_requests       194311                       # Number of requests hitting in the snoop filter with a single holder of the requested data.
system.cpu_cluster.toL2Bus.snoop_filter.hit_single_snoops         1895                       # Number of snoops hitting in the snoop filter with a single holder of the requested data.
system.cpu_cluster.toL2Bus.snoop_filter.tot_requests       389643                       # Total number of requests made to the snoop filter.
system.cpu_cluster.toL2Bus.snoop_filter.tot_snoops         1895                       # Total number of snoops made to the snoop filter.
system.membus.snoop_filter.hit_multi_requests            0                       # Number of requests hitting in the snoop filter with multiple (>1) holders of the requested data.
system.membus.snoop_filter.hit_multi_snoops            0                       # Number of snoops hitting in the snoop filter with multiple (>1) holders of the requested data.
system.membus.snoop_filter.hit_single_requests            3                       # Number of requests hitting in the snoop filter with a single holder of the requested data.
system.membus.snoop_filter.hit_single_snoops            0                       # Number of snoops hitting in the snoop filter with a single holder of the requested data.
system.membus.snoop_filter.tot_requests          5628                       # Total number of requests made to the snoop filter.
system.membus.snoop_filter.tot_snoops               0                       # Total number of snoops made to the snoop filter.
system.membus.pwrStateResidencyTicks::UNDEFINED 102213470037                       # Cumulative time (in ticks) in various power states
system.membus.trans_dist::ReadResp               4290                       # Transaction distribution
system.membus.trans_dist::ReadExReq              1231                       # Transaction distribution
system.membus.trans_dist::ReadExResp             1231                       # Transaction distribution
system.membus.trans_dist::ReadCleanReq           4290                       # Transaction distribution
system.membus.trans_dist::InvalidateReq           107                       # Transaction distribution
system.membus.pkt_count_system.cpu_cluster.l2.mem_side::system.mem_ctrls.port        11149                       # Packet count per connected master and slave (bytes)
system.membus.pkt_count_system.cpu_cluster.l2.mem_side::total        11149                       # Packet count per connected master and slave (bytes)
system.membus.pkt_count::total                  11149                       # Packet count per connected master and slave (bytes)
system.membus.pkt_size_system.cpu_cluster.l2.mem_side::system.mem_ctrls.port       353344                       # Cumulative packet size per connected master and slave (bytes)
system.membus.pkt_size_system.cpu_cluster.l2.mem_side::total       353344                       # Cumulative packet size per connected master and slave (bytes)
system.membus.pkt_size::total                  353344                       # Cumulative packet size per connected master and slave (bytes)
system.membus.snoops                                0                       # Total snoops (count)
system.membus.snoopTraffic                          0                       # Total snoop traffic (bytes)
system.membus.snoop_fanout::samples              5628                       # Request fanout histogram
system.membus.snoop_fanout::mean                    0                       # Request fanout histogram
system.membus.snoop_fanout::stdev                   0                       # Request fanout histogram
system.membus.snoop_fanout::underflows              0      0.00%      0.00% # Request fanout histogram
system.membus.snoop_fanout::0                    5628    100.00%    100.00% # Request fanout histogram
system.membus.snoop_fanout::1                       0      0.00%    100.00% # Request fanout histogram
system.membus.snoop_fanout::overflows               0      0.00%    100.00% # Request fanout histogram
system.membus.snoop_fanout::min_value               0                       # Request fanout histogram
system.membus.snoop_fanout::max_value               0                       # Request fanout histogram
system.membus.snoop_fanout::total                5628                       # Request fanout histogram
system.membus.reqLayer0.occupancy             7739957                       # Layer occupancy (ticks)
system.membus.reqLayer0.utilization               0.0                       # Layer utilization (%)
system.membus.badaddr_responder.pwrStateResidencyTicks::UNDEFINED 102213470037                       # Cumulative time (in ticks) in various power states
system.membus.respLayer1.occupancy           31048999                       # Layer occupancy (ticks)
system.membus.respLayer1.utilization              0.0                       # Layer utilization (%)
system.voltage_domain.voltage                       1                       # Voltage in Volts
system.clk_domain.clock                          1000                       # Clock period in ticks
system.cpu_cluster.toL2Bus.pwrStateResidencyTicks::UNDEFINED 102213470037                       # Cumulative time (in ticks) in various power states
system.cpu_cluster.toL2Bus.trans_dist::ReadResp       161594                       # Transaction distribution
system.cpu_cluster.toL2Bus.trans_dist::WritebackDirty       161729                       # Transaction distribution
system.cpu_cluster.toL2Bus.trans_dist::WritebackClean        32581                       # Transaction distribution
system.cpu_cluster.toL2Bus.trans_dist::HardPFReq         5174                       # Transaction distribution
system.cpu_cluster.toL2Bus.trans_dist::ReadExReq        31212                       # Transaction distribution
system.cpu_cluster.toL2Bus.trans_dist::ReadExResp        31212                       # Transaction distribution
system.cpu_cluster.toL2Bus.trans_dist::ReadCleanReq        30942                       # Transaction distribution
system.cpu_cluster.toL2Bus.trans_dist::ReadSharedReq       130653                       # Transaction distribution
system.cpu_cluster.toL2Bus.trans_dist::InvalidateReq         2526                       # Transaction distribution
system.cpu_cluster.toL2Bus.trans_dist::InvalidateResp         2526                       # Transaction distribution
system.cpu_cluster.toL2Bus.pkt_count_system.cpu_cluster.cpus.icache.mem_side::system.cpu_cluster.l2.cpu_side        92314                       # Packet count per connected master and slave (bytes)
system.cpu_cluster.toL2Bus.pkt_count_system.cpu_cluster.cpus.dcache.mem_side::system.cpu_cluster.l2.cpu_side       492661                       # Packet count per connected master and slave (bytes)
system.cpu_cluster.toL2Bus.pkt_count::total       584975                       # Packet count per connected master and slave (bytes)
system.cpu_cluster.toL2Bus.pkt_size_system.cpu_cluster.cpus.icache.mem_side::system.cpu_cluster.l2.cpu_side      3927808                       # Cumulative packet size per connected master and slave (bytes)
system.cpu_cluster.toL2Bus.pkt_size_system.cpu_cluster.cpus.dcache.mem_side::system.cpu_cluster.l2.cpu_side     20847616                       # Cumulative packet size per connected master and slave (bytes)
system.cpu_cluster.toL2Bus.pkt_size::total     24775424                       # Cumulative packet size per connected master and slave (bytes)
system.cpu_cluster.toL2Bus.snoops                5174                       # Total snoops (count)
system.cpu_cluster.toL2Bus.snoopTraffic             0                       # Total snoop traffic (bytes)
system.cpu_cluster.toL2Bus.snoop_fanout::samples       200507                       # Request fanout histogram
system.cpu_cluster.toL2Bus.snoop_fanout::mean     0.009466                       # Request fanout histogram
system.cpu_cluster.toL2Bus.snoop_fanout::stdev     0.096832                       # Request fanout histogram
system.cpu_cluster.toL2Bus.snoop_fanout::underflows            0      0.00%      0.00% # Request fanout histogram
system.cpu_cluster.toL2Bus.snoop_fanout::0       198609     99.05%     99.05% # Request fanout histogram
system.cpu_cluster.toL2Bus.snoop_fanout::1         1898      0.95%    100.00% # Request fanout histogram
system.cpu_cluster.toL2Bus.snoop_fanout::2            0      0.00%    100.00% # Request fanout histogram
system.cpu_cluster.toL2Bus.snoop_fanout::overflows            0      0.00%    100.00% # Request fanout histogram
system.cpu_cluster.toL2Bus.snoop_fanout::min_value            0                       # Request fanout histogram
system.cpu_cluster.toL2Bus.snoop_fanout::max_value            1                       # Request fanout histogram
system.cpu_cluster.toL2Bus.snoop_fanout::total       200507                       # Request fanout histogram
system.cpu_cluster.toL2Bus.reqLayer0.occupancy    208471221                       # Layer occupancy (ticks)
system.cpu_cluster.toL2Bus.reqLayer0.utilization          0.2                       # Layer utilization (%)
system.cpu_cluster.toL2Bus.respLayer1.occupancy    116473392                       # Layer occupancy (ticks)
system.cpu_cluster.toL2Bus.respLayer1.utilization          0.1                       # Layer utilization (%)
system.cpu_cluster.toL2Bus.respLayer0.occupancy     22091874                       # Layer occupancy (ticks)
system.cpu_cluster.toL2Bus.respLayer0.utilization          0.0                       # Layer utilization (%)
system.cpu_cluster.voltage_domain.voltage            1                       # Voltage in Volts
system.cpu_cluster.l2.pwrStateResidencyTicks::UNDEFINED 102213470037                       # Cumulative time (in ticks) in various power states
system.cpu_cluster.l2.demand_hits::.cpu_cluster.cpus.inst        29400                       # number of demand (read+write) hits
system.cpu_cluster.l2.demand_hits::.cpu_cluster.cpus.data       160128                       # number of demand (read+write) hits
system.cpu_cluster.l2.demand_hits::total       189528                       # number of demand (read+write) hits
system.cpu_cluster.l2.overall_hits::.cpu_cluster.cpus.inst        29400                       # number of overall hits
system.cpu_cluster.l2.overall_hits::.cpu_cluster.cpus.data       160128                       # number of overall hits
system.cpu_cluster.l2.overall_hits::total       189528                       # number of overall hits
system.cpu_cluster.l2.demand_misses::.cpu_cluster.cpus.inst         1542                       # number of demand (read+write) misses
system.cpu_cluster.l2.demand_misses::.cpu_cluster.cpus.data         1737                       # number of demand (read+write) misses
system.cpu_cluster.l2.demand_misses::total         3279                       # number of demand (read+write) misses
system.cpu_cluster.l2.overall_misses::.cpu_cluster.cpus.inst         1542                       # number of overall misses
system.cpu_cluster.l2.overall_misses::.cpu_cluster.cpus.data         1737                       # number of overall misses
system.cpu_cluster.l2.overall_misses::total         3279                       # number of overall misses
system.cpu_cluster.l2.demand_miss_latency::.cpu_cluster.cpus.inst    125921754                       # number of demand (read+write) miss cycles
system.cpu_cluster.l2.demand_miss_latency::.cpu_cluster.cpus.data    137504619                       # number of demand (read+write) miss cycles
system.cpu_cluster.l2.demand_miss_latency::total    263426373                       # number of demand (read+write) miss cycles
system.cpu_cluster.l2.overall_miss_latency::.cpu_cluster.cpus.inst    125921754                       # number of overall miss cycles
system.cpu_cluster.l2.overall_miss_latency::.cpu_cluster.cpus.data    137504619                       # number of overall miss cycles
system.cpu_cluster.l2.overall_miss_latency::total    263426373                       # number of overall miss cycles
system.cpu_cluster.l2.demand_accesses::.cpu_cluster.cpus.inst        30942                       # number of demand (read+write) accesses
system.cpu_cluster.l2.demand_accesses::.cpu_cluster.cpus.data       161865                       # number of demand (read+write) accesses
system.cpu_cluster.l2.demand_accesses::total       192807                       # number of demand (read+write) accesses
system.cpu_cluster.l2.overall_accesses::.cpu_cluster.cpus.inst        30942                       # number of overall (read+write) accesses
system.cpu_cluster.l2.overall_accesses::.cpu_cluster.cpus.data       161865                       # number of overall (read+write) accesses
system.cpu_cluster.l2.overall_accesses::total       192807                       # number of overall (read+write) accesses
system.cpu_cluster.l2.demand_miss_rate::.cpu_cluster.cpus.inst     0.049835                       # miss rate for demand accesses
system.cpu_cluster.l2.demand_miss_rate::.cpu_cluster.cpus.data     0.010731                       # miss rate for demand accesses
system.cpu_cluster.l2.demand_miss_rate::total     0.017007                       # miss rate for demand accesses
system.cpu_cluster.l2.overall_miss_rate::.cpu_cluster.cpus.inst     0.049835                       # miss rate for overall accesses
system.cpu_cluster.l2.overall_miss_rate::.cpu_cluster.cpus.data     0.010731                       # miss rate for overall accesses
system.cpu_cluster.l2.overall_miss_rate::total     0.017007                       # miss rate for overall accesses
system.cpu_cluster.l2.demand_avg_miss_latency::.cpu_cluster.cpus.inst 81661.319066                       # average overall miss latency
system.cpu_cluster.l2.demand_avg_miss_latency::.cpu_cluster.cpus.data 79162.129534                       # average overall miss latency
system.cpu_cluster.l2.demand_avg_miss_latency::total 80337.411711                       # average overall miss latency
system.cpu_cluster.l2.overall_avg_miss_latency::.cpu_cluster.cpus.inst 81661.319066                       # average overall miss latency
system.cpu_cluster.l2.overall_avg_miss_latency::.cpu_cluster.cpus.data 79162.129534                       # average overall miss latency
system.cpu_cluster.l2.overall_avg_miss_latency::total 80337.411711                       # average overall miss latency
system.cpu_cluster.l2.blocked_cycles::no_mshrs            0                       # number of cycles access was blocked
system.cpu_cluster.l2.blocked_cycles::no_targets            0                       # number of cycles access was blocked
system.cpu_cluster.l2.blocked::no_mshrs             0                       # number of cycles access was blocked
system.cpu_cluster.l2.blocked::no_targets            0                       # number of cycles access was blocked
system.cpu_cluster.l2.avg_blocked_cycles::no_mshrs          nan                       # average number of cycles each access was blocked
system.cpu_cluster.l2.avg_blocked_cycles::no_targets          nan                       # average number of cycles each access was blocked
system.cpu_cluster.l2.unused_prefetches          2169                       # number of HardPF blocks evicted w/o reference
system.cpu_cluster.l2.demand_mshr_hits::.cpu_cluster.cpus.data          212                       # number of demand (read+write) MSHR hits
system.cpu_cluster.l2.demand_mshr_hits::total          212                       # number of demand (read+write) MSHR hits
system.cpu_cluster.l2.overall_mshr_hits::.cpu_cluster.cpus.data          212                       # number of overall MSHR hits
system.cpu_cluster.l2.overall_mshr_hits::total          212                       # number of overall MSHR hits
system.cpu_cluster.l2.demand_mshr_misses::.cpu_cluster.cpus.inst         1542                       # number of demand (read+write) MSHR misses
system.cpu_cluster.l2.demand_mshr_misses::.cpu_cluster.cpus.data         1525                       # number of demand (read+write) MSHR misses
system.cpu_cluster.l2.demand_mshr_misses::total         3067                       # number of demand (read+write) MSHR misses
system.cpu_cluster.l2.overall_mshr_misses::.cpu_cluster.cpus.inst         1542                       # number of overall MSHR misses
system.cpu_cluster.l2.overall_mshr_misses::.cpu_cluster.cpus.data         1525                       # number of overall MSHR misses
system.cpu_cluster.l2.overall_mshr_misses::.cpu_cluster.l2.prefetcher         4350                       # number of overall MSHR misses
system.cpu_cluster.l2.overall_mshr_misses::total         7417                       # number of overall MSHR misses
system.cpu_cluster.l2.demand_mshr_miss_latency::.cpu_cluster.cpus.inst    119038499                       # number of demand (read+write) MSHR miss cycles
system.cpu_cluster.l2.demand_mshr_miss_latency::.cpu_cluster.cpus.data    127146686                       # number of demand (read+write) MSHR miss cycles
system.cpu_cluster.l2.demand_mshr_miss_latency::total    246185185                       # number of demand (read+write) MSHR miss cycles
system.cpu_cluster.l2.overall_mshr_miss_latency::.cpu_cluster.cpus.inst    119038499                       # number of overall MSHR miss cycles
system.cpu_cluster.l2.overall_mshr_miss_latency::.cpu_cluster.cpus.data    127146686                       # number of overall MSHR miss cycles
system.cpu_cluster.l2.overall_mshr_miss_latency::.cpu_cluster.l2.prefetcher    213148665                       # number of overall MSHR miss cycles
system.cpu_cluster.l2.overall_mshr_miss_latency::total    459333850                       # number of overall MSHR miss cycles
system.cpu_cluster.l2.demand_mshr_miss_rate::.cpu_cluster.cpus.inst     0.049835                       # mshr miss rate for demand accesses
[...]
system.mem_ctrls.rdQLenPdf::33                      0                       # What read queue length does an incoming req see
system.mem_ctrls.rdQLenPdf::34                      0                       # What read queue length does an incoming req see
system.mem_ctrls.rdQLenPdf::35                      0                       # What read queue length does an incoming req see
system.mem_ctrls.rdQLenPdf::36                      0                       # What read queue length does an incoming req see
system.mem_ctrls.rdQLenPdf::37                      0                       # What read queue length does an incoming req see
system.mem_ctrls.rdQLenPdf::38                      0                       # What read queue length does an incoming req see
system.mem_ctrls.rdQLenPdf::39                      0                       # What read queue length does an incoming req see
system.mem_ctrls.rdQLenPdf::40                      0                       # What read queue length does an incoming req see
system.mem_ctrls.rdQLenPdf::41                      0                       # What read queue length does an incoming req see
system.mem_ctrls.rdQLenPdf::42                      0                       # What read queue length does an incoming req see
system.mem_ctrls.rdQLenPdf::43                      0                       # What read queue length does an incoming req see
system.mem_ctrls.rdQLenPdf::44                      0                       # What read queue length does an incoming req see
system.mem_ctrls.rdQLenPdf::45                      0                       # What read queue length does an incoming req see
system.mem_ctrls.rdQLenPdf::46                      0                       # What read queue length does an incoming req see
system.mem_ctrls.rdQLenPdf::47                      0                       # What read queue length does an incoming req see
system.mem_ctrls.rdQLenPdf::48                      0                       # What read queue length does an incoming req see
system.mem_ctrls.rdQLenPdf::49                      0                       # What read queue length does an incoming req see
system.mem_ctrls.rdQLenPdf::50                      0                       # What read queue length does an incoming req see
system.mem_ctrls.rdQLenPdf::51                      0                       # What read queue length does an incoming req see
system.mem_ctrls.rdQLenPdf::52                      0                       # What read queue length does an incoming req see
system.mem_ctrls.rdQLenPdf::53                      0                       # What read queue length does an incoming req see
system.mem_ctrls.rdQLenPdf::54                      0                       # What read queue length does an incoming req see
system.mem_ctrls.rdQLenPdf::55                      0                       # What read queue length does an incoming req see
system.mem_ctrls.rdQLenPdf::56                      0                       # What read queue length does an incoming req see
system.mem_ctrls.rdQLenPdf::57                      0                       # What read queue length does an incoming req see
system.mem_ctrls.rdQLenPdf::58                      0                       # What read queue length does an incoming req see
system.mem_ctrls.rdQLenPdf::59                      0                       # What read queue length does an incoming req see
system.mem_ctrls.rdQLenPdf::60                      0                       # What read queue length does an incoming req see
system.mem_ctrls.rdQLenPdf::61                      0                       # What read queue length does an incoming req see
system.mem_ctrls.rdQLenPdf::62                      0                       # What read queue length does an incoming req see
system.mem_ctrls.rdQLenPdf::63                      0                       # What read queue length does an incoming req see
system.mem_ctrls.wrQLenPdf::0                       0                       # What write queue length does an incoming req see
system.mem_ctrls.wrQLenPdf::1                       0                       # What write queue length does an incoming req see
system.mem_ctrls.wrQLenPdf::2                       0                       # What write queue length does an incoming req see
system.mem_ctrls.wrQLenPdf::3                       0                       # What write queue length does an incoming req see
system.mem_ctrls.wrQLenPdf::4                       0                       # What write queue length does an incoming req see
system.mem_ctrls.wrQLenPdf::5                       0                       # What write queue length does an incoming req see
system.mem_ctrls.wrQLenPdf::6                       0                       # What write queue length does an incoming req see
system.mem_ctrls.wrQLenPdf::7                       0                       # What write queue length does an incoming req see
system.mem_ctrls.wrQLenPdf::8                       0                       # What write queue length does an incoming req see
system.mem_ctrls.wrQLenPdf::9                       0                       # What write queue length does an incoming req see
system.mem_ctrls.wrQLenPdf::10                      0                       # What write queue length does an incoming req see
system.mem_ctrls.wrQLenPdf::11                      0                       # What write queue length does an incoming req see
system.mem_ctrls.wrQLenPdf::12                      0                       # What write queue length does an incoming req see
system.mem_ctrls.wrQLenPdf::13                      0                       # What write queue length does an incoming req see
system.mem_ctrls.wrQLenPdf::14                      0                       # What write queue length does an incoming req see
system.mem_ctrls.wrQLenPdf::15                      0                       # What write queue length does an incoming req see
system.mem_ctrls.wrQLenPdf::16                      0                       # What write queue length does an incoming req see
system.mem_ctrls.wrQLenPdf::17                      0                       # What write queue length does an incoming req see
system.mem_ctrls.wrQLenPdf::18                      0                       # What write queue length does an incoming req see
system.mem_ctrls.wrQLenPdf::19                      0                       # What write queue length does an incoming req see
system.mem_ctrls.wrQLenPdf::20                      0                       # What write queue length does an incoming req see
system.mem_ctrls.wrQLenPdf::21                      0                       # What write queue length does an incoming req see
system.mem_ctrls.wrQLenPdf::22                      0                       # What write queue length does an incoming req see
system.mem_ctrls.wrQLenPdf::23                      0                       # What write queue length does an incoming req see
system.mem_ctrls.wrQLenPdf::24                      0                       # What write queue length does an incoming req see
system.mem_ctrls.wrQLenPdf::25                      0                       # What write queue length does an incoming req see
system.mem_ctrls.wrQLenPdf::26                      0                       # What write queue length does an incoming req see
system.mem_ctrls.wrQLenPdf::27                      0                       # What write queue length does an incoming req see
system.mem_ctrls.wrQLenPdf::28                      0                       # What write queue length does an incoming req see
system.mem_ctrls.wrQLenPdf::29                      0                       # What write queue length does an incoming req see
system.mem_ctrls.wrQLenPdf::30                      0                       # What write queue length does an incoming req see
system.mem_ctrls.wrQLenPdf::31                      0                       # What write queue length does an incoming req see
system.mem_ctrls.wrQLenPdf::32                      0                       # What write queue length does an incoming req see
system.mem_ctrls.wrQLenPdf::33                      0                       # What write queue length does an incoming req see
system.mem_ctrls.wrQLenPdf::34                      0                       # What write queue length does an incoming req see
system.mem_ctrls.wrQLenPdf::35                      0                       # What write queue length does an incoming req see
system.mem_ctrls.wrQLenPdf::36                      0                       # What write queue length does an incoming req see
system.mem_ctrls.wrQLenPdf::37                      0                       # What write queue length does an incoming req see
system.mem_ctrls.wrQLenPdf::38                      0                       # What write queue length does an incoming req see
system.mem_ctrls.wrQLenPdf::39                      0                       # What write queue length does an incoming req see
system.mem_ctrls.wrQLenPdf::40                      0                       # What write queue length does an incoming req see
system.mem_ctrls.wrQLenPdf::41                      0                       # What write queue length does an incoming req see
system.mem_ctrls.wrQLenPdf::42                      0                       # What write queue length does an incoming req see
system.mem_ctrls.wrQLenPdf::43                      0                       # What write queue length does an incoming req see
system.mem_ctrls.wrQLenPdf::44                      0                       # What write queue length does an incoming req see
system.mem_ctrls.wrQLenPdf::45                      0                       # What write queue length does an incoming req see
system.mem_ctrls.wrQLenPdf::46                      0                       # What write queue length does an incoming req see
system.mem_ctrls.wrQLenPdf::47                      0                       # What write queue length does an incoming req see
system.mem_ctrls.wrQLenPdf::48                      0                       # What write queue length does an incoming req see
system.mem_ctrls.wrQLenPdf::49                      0                       # What write queue length does an incoming req see
system.mem_ctrls.wrQLenPdf::50                      0                       # What write queue length does an incoming req see
system.mem_ctrls.wrQLenPdf::51                      0                       # What write queue length does an incoming req see
system.mem_ctrls.wrQLenPdf::52                      0                       # What write queue length does an incoming req see
system.mem_ctrls.wrQLenPdf::53                      0                       # What write queue length does an incoming req see
system.mem_ctrls.wrQLenPdf::54                      0                       # What write queue length does an incoming req see
system.mem_ctrls.wrQLenPdf::55                      0                       # What write queue length does an incoming req see
system.mem_ctrls.wrQLenPdf::56                      0                       # What write queue length does an incoming req see
system.mem_ctrls.wrQLenPdf::57                      0                       # What write queue length does an incoming req see
system.mem_ctrls.wrQLenPdf::58                      0                       # What write queue length does an incoming req see
system.mem_ctrls.wrQLenPdf::59                      0                       # What write queue length does an incoming req see
system.mem_ctrls.wrQLenPdf::60                      0                       # What write queue length does an incoming req see
system.mem_ctrls.wrQLenPdf::61                      0                       # What write queue length does an incoming req see
system.mem_ctrls.wrQLenPdf::62                      0                       # What write queue length does an incoming req see
system.mem_ctrls.wrQLenPdf::63                      0                       # What write queue length does an incoming req see
system.mem_ctrls.bytesPerActivate::samples         1456                       # Bytes accessed per row activation
system.mem_ctrls.bytesPerActivate::mean    242.593407                       # Bytes accessed per row activation
system.mem_ctrls.bytesPerActivate::gmean   151.923817                       # Bytes accessed per row activation
system.mem_ctrls.bytesPerActivate::stdev   276.435792                       # Bytes accessed per row activation
system.mem_ctrls.bytesPerActivate::0-127          567     38.94%     38.94% # Bytes accessed per row activation
system.mem_ctrls.bytesPerActivate::128-255          472     32.42%     71.36% # Bytes accessed per row activation
system.mem_ctrls.bytesPerActivate::256-383          141      9.68%     81.04% # Bytes accessed per row activation
system.mem_ctrls.bytesPerActivate::384-511           58      3.98%     85.03% # Bytes accessed per row activation
system.mem_ctrls.bytesPerActivate::512-639           46      3.16%     88.19% # Bytes accessed per row activation
system.mem_ctrls.bytesPerActivate::640-767           30      2.06%     90.25% # Bytes accessed per row activation
system.mem_ctrls.bytesPerActivate::768-895           25      1.72%     91.96% # Bytes accessed per row activation
system.mem_ctrls.bytesPerActivate::896-1023           17      1.17%     93.13% # Bytes accessed per row activation
system.mem_ctrls.bytesPerActivate::1024-1151          100      6.87%    100.00% # Bytes accessed per row activation
system.mem_ctrls.bytesPerActivate::total         1456                       # Bytes accessed per row activation
system.mem_ctrls.bytesReadDRAM                 353344                       # Total number of bytes read from DRAM
system.mem_ctrls.bytesReadWrQ                       0                       # Total number of bytes read from write queue
system.mem_ctrls.bytesWritten                       0                       # Total number of bytes written to DRAM
system.mem_ctrls.bytesReadSys                  353344                       # Total read bytes from the system interface side
system.mem_ctrls.bytesWrittenSys                    0                       # Total written bytes from the system interface side
system.mem_ctrls.avgRdBW                         3.46                       # Average DRAM read bandwidth in MiByte/s
system.mem_ctrls.avgWrBW                         0.00                       # Average achieved write bandwidth in MiByte/s
system.mem_ctrls.avgRdBWSys                      3.46                       # Average system read bandwidth in MiByte/s
system.mem_ctrls.avgWrBWSys                      0.00                       # Average system write bandwidth in MiByte/s
system.mem_ctrls.peakBW                      12800.00                       # Theoretical peak bandwidth in MiByte/s
system.mem_ctrls.busUtil                         0.03                       # Data bus utilization in percentage
system.mem_ctrls.busUtilRead                     0.03                       # Data bus utilization in percentage for reads
system.mem_ctrls.busUtilWrite                    0.00                       # Data bus utilization in percentage for writes
system.mem_ctrls.totGap                  102213378645                       # Total gap between requests
system.mem_ctrls.avgGap                   18513562.51                       # Average gap between requests
system.mem_ctrls.masterReadBytes::.cpu_cluster.cpus.inst        98624                       # Per-master bytes read from memory
system.mem_ctrls.masterReadBytes::.cpu_cluster.cpus.data        97600                       # Per-master bytes read from memory
system.mem_ctrls.masterReadBytes::.cpu_cluster.l2.prefetcher       157120                       # Per-master bytes read from memory
system.mem_ctrls.masterReadRate::.cpu_cluster.cpus.inst 964882.612480520853                       # Per-master bytes read from memory rate (Bytes/sec)
system.mem_ctrls.masterReadRate::.cpu_cluster.cpus.data 954864.363421670510                       # Per-master bytes read from memory rate (Bytes/sec)
system.mem_ctrls.masterReadRate::.cpu_cluster.l2.prefetcher 1537175.089967345120                       # Per-master bytes read from memory rate (Bytes/sec)
system.mem_ctrls.masterReadAccesses::.cpu_cluster.cpus.inst         1541                       # Per-master read serviced memory accesses
system.mem_ctrls.masterReadAccesses::.cpu_cluster.cpus.data         1525                       # Per-master read serviced memory accesses
system.mem_ctrls.masterReadAccesses::.cpu_cluster.l2.prefetcher         2455                       # Per-master read serviced memory accesses
system.mem_ctrls.masterReadTotalLat::.cpu_cluster.cpus.inst     63788335                       # Per-master read total memory access latency
system.mem_ctrls.masterReadTotalLat::.cpu_cluster.cpus.data     72350508                       # Per-master read total memory access latency
system.mem_ctrls.masterReadTotalLat::.cpu_cluster.l2.prefetcher    136225136                       # Per-master read total memory access latency
system.mem_ctrls.masterReadAvgLat::.cpu_cluster.cpus.inst     41394.12                       # Per-master read average memory access latency
system.mem_ctrls.masterReadAvgLat::.cpu_cluster.cpus.data     47442.96                       # Per-master read average memory access latency
system.mem_ctrls.masterReadAvgLat::.cpu_cluster.l2.prefetcher     55488.85                       # Per-master read average memory access latency
system.mem_ctrls.pageHitRate                    73.59                       # Row buffer hit rate, read and write combined
system.mem_ctrls.rank0.actEnergy                    0                       # Energy for activate commands per rank (pJ)
system.mem_ctrls.rank0.preEnergy                    0                       # Energy for precharge commands per rank (pJ)
system.mem_ctrls.rank0.readEnergy                   0                       # Energy for read commands per rank (pJ)
system.mem_ctrls.rank0.writeEnergy                  0                       # Energy for write commands per rank (pJ)
system.mem_ctrls.rank0.refreshEnergy                0                       # Energy for refresh commands per rank (pJ)
system.mem_ctrls.rank0.actBackEnergy                0                       # Energy for active background per rank (pJ)
system.mem_ctrls.rank0.preBackEnergy                0                       # Energy for precharge background per rank (pJ)
system.mem_ctrls.rank0.actPowerDownEnergy            0                       # Energy for active power-down per rank (pJ)
system.mem_ctrls.rank0.prePowerDownEnergy            0                       # Energy for precharge power-down per rank (pJ)
system.mem_ctrls.rank0.selfRefreshEnergy            0                       # Energy for self refresh per rank (pJ)
system.mem_ctrls.rank0.totalEnergy                  0                       # Total energy per rank (pJ)
system.mem_ctrls.rank0.averagePower                 0                       # Core power per rank (mW)
system.mem_ctrls.rank0.totalIdleTime                0                       # Total Idle time Per DRAM Rank
system.mem_ctrls.rank0.memoryStateTime::IDLE  95329286956                       # Time in different power states
system.mem_ctrls.rank0.memoryStateTime::REF   5529300000                       # Time in different power states
system.mem_ctrls.rank0.memoryStateTime::SREF            0                       # Time in different power states
system.mem_ctrls.rank0.memoryStateTime::PRE_PDN            0                       # Time in different power states
system.mem_ctrls.rank0.memoryStateTime::ACT   1354883081                       # Time in different power states
system.mem_ctrls.rank0.memoryStateTime::ACT_PDN            0                       # Time in different power states

---------- End Simulation Statistics   ----------
