
---------- Begin Simulation Statistics ----------
final_tick                                11115548787                       # Number of ticks from beginning of simulation (restored from checkpoints and never reset)
host_inst_rate                                  85002                       # Simulator instruction rate (inst/s)
host_mem_usage                                4605676                       # Number of bytes of host memory used
host_op_rate                                    99483                       # Simulator op (including micro ops) rate (op/s)
host_seconds                                   144.70                       # Real time elapsed on the host
host_tick_rate                               76817975                       # Simulator tick rate (ticks/s)
sim_freq                                 1000000000000                       # Frequency of simulated ticks
sim_insts                                    12299815                       # Number of instructions simulated
sim_ops                                      14395203                       # Number of ops (including micro ops) simulated
sim_seconds                                  0.011116                       # Number of seconds simulated
sim_ticks                                 11115548787                       # Number of ticks simulated
system.cpu_cluster.cpus.branchPred.BTBCorrect            0                       # Number of correct BTB predictions (this stat may not work properly.
system.cpu_cluster.cpus.branchPred.BTBHitPct    87.874589                       # BTB Hit Percentage
system.cpu_cluster.cpus.branchPred.BTBHits      1246755                       # Number of BTB hits
system.cpu_cluster.cpus.branchPred.BTBLookups      1418789                       # Number of BTB lookups
system.cpu_cluster.cpus.branchPred.RASInCorrect            0                       # Number of incorrect RAS predictions.
system.cpu_cluster.cpus.branchPred.condIncorrect        52594                       # Number of conditional branches incorrect
system.cpu_cluster.cpus.branchPred.condPredicted      1813032                       # Number of conditional branches predicted
system.cpu_cluster.cpus.branchPred.indirectHits       132436                       # Number of indirect target hits.
system.cpu_cluster.cpus.branchPred.indirectLookups       134358                       # Number of indirect predictor lookups.
system.cpu_cluster.cpus.branchPred.indirectMisses         1922                       # Number of indirect misses.
system.cpu_cluster.cpus.branchPred.lookups      2906683                       # Number of BP lookups
system.cpu_cluster.cpus.branchPred.usedRAS       420475                       # Number of times the RAS was used to get a target.
system.cpu_cluster.cpus.branchPredindirectMispredicted         5298                       # Number of mispredicted indirect branches.
system.cpu_cluster.cpus.committedInsts       12299815                       # Number of instructions committed
system.cpu_cluster.cpus.committedOps         14395203                       # Number of ops (including micro ops) committed
system.cpu_cluster.cpus.cpi                  2.531419                       # CPI: cycles per instruction
system.cpu_cluster.cpus.discardedOps           153075                       # Number of ops (including micro ops) which were discarded before commit
system.cpu_cluster.cpus.dtb.accesses                0                       # DTB accesses
system.cpu_cluster.cpus.dtb.align_faults            0                       # Number of TLB faults due to alignment restrictions
system.cpu_cluster.cpus.dtb.domain_faults            0                       # Number of TLB faults due to domain restrictions
system.cpu_cluster.cpus.dtb.flush_entries            0                       # Number of entries that have been flushed from TLB
system.cpu_cluster.cpus.dtb.flush_tlb               0                       # Number of times complete TLB was flushed
system.cpu_cluster.cpus.dtb.flush_tlb_asid            0                       # Number of times TLB was flushed by ASID
system.cpu_cluster.cpus.dtb.flush_tlb_mva            0                       # Number of times TLB was flushed by MVA
system.cpu_cluster.cpus.dtb.flush_tlb_mva_asid            0                       # Number of times TLB was flushed by MVA & ASID
system.cpu_cluster.cpus.dtb.hits                    0                       # DTB hits
system.cpu_cluster.cpus.dtb.inst_accesses            0                       # ITB inst accesses
system.cpu_cluster.cpus.dtb.inst_hits               0                       # ITB inst hits
system.cpu_cluster.cpus.dtb.inst_misses             0                       # ITB inst misses
system.cpu_cluster.cpus.dtb.misses                  0                       # DTB misses
system.cpu_cluster.cpus.dtb.perms_faults            0                       # Number of TLB faults due to permissions restrictions
system.cpu_cluster.cpus.dtb.prefetch_faults            0                       # Number of TLB faults due to prefetch
system.cpu_cluster.cpus.dtb.read_accesses            0                       # DTB read accesses
system.cpu_cluster.cpus.dtb.read_hits               0                       # DTB read hits
system.cpu_cluster.cpus.dtb.read_misses             0                       # DTB read misses
system.cpu_cluster.cpus.dtb.stage2_mmu.stage2_tlb.accesses            0                       # DTB accesses
system.cpu_cluster.cpus.dtb.stage2_mmu.stage2_tlb.align_faults            0                       # Number of TLB faults due to alignment restrictions
system.cpu_cluster.cpus.dtb.stage2_mmu.stage2_tlb.domain_faults            0                       # Number of TLB faults due to domain restrictions
system.cpu_cluster.cpus.dtb.stage2_mmu.stage2_tlb.flush_entries            0                       # Number of entries that have been flushed from TLB
system.cpu_cluster.cpus.dtb.stage2_mmu.stage2_tlb.flush_tlb            0                       # Number of times complete TLB was flushed
system.cpu_cluster.cpus.dtb.stage2_mmu.stage2_tlb.flush_tlb_asid            0                       # Number of times TLB was flushed by ASID
system.cpu_cluster.cpus.dtb.stage2_mmu.stage2_tlb.flush_tlb_mva            0                       # Number of times TLB was flushed by MVA
system.cpu_cluster.cpus.dtb.stage2_mmu.stage2_tlb.flush_tlb_mva_asid            0                       # Number of times TLB was flushed by MVA & ASID
system.cpu_cluster.cpus.dtb.stage2_mmu.stage2_tlb.hits            0                       # DTB hits
system.cpu_cluster.cpus.dtb.stage2_mmu.stage2_tlb.inst_accesses            0                       # ITB inst accesses
system.cpu_cluster.cpus.dtb.stage2_mmu.stage2_tlb.inst_hits            0                       # ITB inst hits
system.cpu_cluster.cpus.dtb.stage2_mmu.stage2_tlb.inst_misses            0                       # ITB inst misses
system.cpu_cluster.cpus.dtb.stage2_mmu.stage2_tlb.misses            0                       # DTB misses
system.cpu_cluster.cpus.dtb.stage2_mmu.stage2_tlb.perms_faults            0                       # Number of TLB faults due to permissions restrictions
system.cpu_cluster.cpus.dtb.stage2_mmu.stage2_tlb.prefetch_faults            0                       # Number of TLB faults due to prefetch
system.cpu_cluster.cpus.dtb.stage2_mmu.stage2_tlb.read_accesses            0                       # DTB read accesses
system.cpu_cluster.cpus.dtb.stage2_mmu.stage2_tlb.read_hits            0                       # DTB read hits
system.cpu_cluster.cpus.dtb.stage2_mmu.stage2_tlb.read_misses            0                       # DTB read misses
system.cpu_cluster.cpus.dtb.stage2_mmu.stage2_tlb.walker.walkRequestOrigin_Requested::Data            0                       # Table walker requests started/completed, data/inst
system.cpu_cluster.cpus.dtb.stage2_mmu.stage2_tlb.walker.walkRequestOrigin_Requested::Inst            0                       # Table walker requests started/completed, data/inst
system.cpu_cluster.cpus.dtb.stage2_mmu.stage2_tlb.walker.walkRequestOrigin_Requested::total            0                       # Table walker requests started/completed, data/inst
system.cpu_cluster.cpus.dtb.stage2_mmu.stage2_tlb.walker.walkRequestOrigin_Completed::Data            0                       # Table walker requests started/completed, data/inst
system.cpu_cluster.cpus.dtb.stage2_mmu.stage2_tlb.walker.walkRequestOrigin_Completed::Inst            0                       # Table walker requests started/completed, data/inst
system.cpu_cluster.cpus.dtb.stage2_mmu.stage2_tlb.walker.walkRequestOrigin_Completed::total            0                       # Table walker requests started/completed, data/inst
system.cpu_cluster.cpus.dtb.stage2_mmu.stage2_tlb.walker.walkRequestOrigin::total            0                       # Table walker requests started/completed, data/inst
system.cpu_cluster.cpus.dtb.stage2_mmu.stage2_tlb.walker.walks            0                       # Table walker walks requested
system.cpu_cluster.cpus.dtb.stage2_mmu.stage2_tlb.write_accesses            0                       # DTB write accesses
system.cpu_cluster.cpus.dtb.stage2_mmu.stage2_tlb.write_hits            0                       # DTB write hits
system.cpu_cluster.cpus.dtb.stage2_mmu.stage2_tlb.write_misses            0                       # DTB write misses
system.cpu_cluster.cpus.dtb.walker.walkRequestOrigin_Requested::Data            0                       # Table walker requests started/completed, data/inst
system.cpu_cluster.cpus.dtb.walker.walkRequestOrigin_Requested::Inst            0                       # Table walker requests started/completed, data/inst
system.cpu_cluster.cpus.dtb.walker.walkRequestOrigin_Requested::total            0                       # Table walker requests started/completed, data/inst
system.cpu_cluster.cpus.dtb.walker.walkRequestOrigin_Completed::Data            0                       # Table walker requests started/completed, data/inst
system.cpu_cluster.cpus.dtb.walker.walkRequestOrigin_Completed::Inst            0                       # Table walker requests started/completed, data/inst
system.cpu_cluster.cpus.dtb.walker.walkRequestOrigin_Completed::total            0                       # Table walker requests started/completed, data/inst
system.cpu_cluster.cpus.dtb.walker.walkRequestOrigin::total            0                       # Table walker requests started/completed, data/inst
system.cpu_cluster.cpus.dtb.walker.walks            0                       # Table walker walks requested
system.cpu_cluster.cpus.dtb.write_accesses            0                       # DTB write accesses
system.cpu_cluster.cpus.dtb.write_hits              0                       # DTB write hits
system.cpu_cluster.cpus.dtb.write_misses            0                       # DTB write misses
system.cpu_cluster.cpus.fetch2.amo_instructions          610                       # Number of memory atomic instructions successfully decoded
system.cpu_cluster.cpus.fetch2.fp_instructions            0                       # Number of floating point instructions successfully decoded
system.cpu_cluster.cpus.fetch2.int_instructions      5837674                       # Number of integer instructions successfully decoded
system.cpu_cluster.cpus.fetch2.load_instructions      2458170                       # Number of memory load instructions successfully decoded
system.cpu_cluster.cpus.fetch2.store_instructions      1248748                       # Number of memory store instructions successfully decoded
system.cpu_cluster.cpus.fetch2.vec_instructions       154455                       # Number of SIMD instructions successfully decoded
system.cpu_cluster.cpus.idleCycles           13320161                       # Total number of cycles that the object has spent stopped
system.cpu_cluster.cpus.ipc                  0.395035                       # IPC: instructions per cycle
system.cpu_cluster.cpus.itb.accesses                0                       # DTB accesses
system.cpu_cluster.cpus.itb.align_faults            0                       # Number of TLB faults due to alignment restrictions
system.cpu_cluster.cpus.itb.domain_faults            0                       # Number of TLB faults due to domain restrictions
system.cpu_cluster.cpus.itb.flush_entries            0                       # Number of entries that have been flushed from TLB
system.cpu_cluster.cpus.itb.flush_tlb               0                       # Number of times complete TLB was flushed
system.cpu_cluster.cpus.itb.flush_tlb_asid            0                       # Number of times TLB was flushed by ASID
system.cpu_cluster.cpus.itb.flush_tlb_mva            0                       # Number of times TLB was flushed by MVA
system.cpu_cluster.cpus.itb.flush_tlb_mva_asid            0                       # Number of times TLB was flushed by MVA & ASID
system.cpu_cluster.cpus.itb.hits                    0                       # DTB hits
system.cpu_cluster.cpus.itb.inst_accesses            0                       # ITB inst accesses
system.cpu_cluster.cpus.itb.inst_hits               0                       # ITB inst hits
system.cpu_cluster.cpus.itb.inst_misses             0                       # ITB inst misses
system.cpu_cluster.cpus.itb.misses                  0                       # DTB misses
system.cpu_cluster.cpus.itb.perms_faults            0                       # Number of TLB faults due to permissions restrictions
system.cpu_cluster.cpus.itb.prefetch_faults            0                       # Number of TLB faults due to prefetch
system.cpu_cluster.cpus.itb.read_accesses            0                       # DTB read accesses
system.cpu_cluster.cpus.itb.read_hits               0                       # DTB read hits
system.cpu_cluster.cpus.itb.read_misses             0                       # DTB read misses
system.cpu_cluster.cpus.itb.stage2_mmu.stage2_tlb.accesses            0                       # DTB accesses
system.cpu_cluster.cpus.itb.stage2_mmu.stage2_tlb.align_faults            0                       # Number of TLB faults due to alignment restrictions
system.cpu_cluster.cpus.itb.stage2_mmu.stage2_tlb.domain_faults            0                       # Number of TLB faults due to domain restrictions
system.cpu_cluster.cpus.itb.stage2_mmu.stage2_tlb.flush_entries            0                       # Number of entries that have been flushed from TLB
system.cpu_cluster.cpus.itb.stage2_mmu.stage2_tlb.flush_tlb            0                       # Number of times complete TLB was flushed
system.cpu_cluster.cpus.itb.stage2_mmu.stage2_tlb.flush_tlb_asid            0                       # Number of times TLB was flushed by ASID
system.cpu_cluster.cpus.itb.stage2_mmu.stage2_tlb.flush_tlb_mva            0                       # Number of times TLB was flushed by MVA
system.cpu_cluster.cpus.itb.stage2_mmu.stage2_tlb.flush_tlb_mva_asid            0                       # Number of times TLB was flushed by MVA & ASID
system.cpu_cluster.cpus.itb.stage2_mmu.stage2_tlb.hits            0                       # DTB hits
system.cpu_cluster.cpus.itb.stage2_mmu.stage2_tlb.inst_accesses            0                       # ITB inst accesses
system.cpu_cluster.cpus.itb.stage2_mmu.stage2_tlb.inst_hits            0                       # ITB inst hits
system.cpu_cluster.cpus.itb.stage2_mmu.stage2_tlb.inst_misses            0                       # ITB inst misses
system.cpu_cluster.cpus.itb.stage2_mmu.stage2_tlb.misses            0                       # DTB misses
system.cpu_cluster.cpus.itb.stage2_mmu.stage2_tlb.perms_faults            0                       # Number of TLB faults due to permissions restrictions
system.cpu_cluster.cpus.itb.stage2_mmu.stage2_tlb.prefetch_faults            0                       # Number of TLB faults due to prefetch
system.cpu_cluster.cpus.itb.stage2_mmu.stage2_tlb.read_accesses            0                       # DTB read accesses
system.cpu_cluster.cpus.itb.stage2_mmu.stage2_tlb.read_hits            0                       # DTB read hits
system.cpu_cluster.cpus.itb.stage2_mmu.stage2_tlb.read_misses            0                       # DTB read misses
system.cpu_cluster.cpus.itb.stage2_mmu.stage2_tlb.walker.walkRequestOrigin_Requested::Data            0                       # Table walker requests started/completed, data/inst
system.cpu_cluster.cpus.itb.stage2_mmu.stage2_tlb.walker.walkRequestOrigin_Requested::Inst            0                       # Table walker requests started/completed, data/inst
system.cpu_cluster.cpus.itb.stage2_mmu.stage2_tlb.walker.walkRequestOrigin_Requested::total            0                       # Table walker requests started/completed, data/inst
system.cpu_cluster.cpus.itb.stage2_mmu.stage2_tlb.walker.walkRequestOrigin_Completed::Data            0                       # Table walker requests started/completed, data/inst
system.cpu_cluster.cpus.itb.stage2_mmu.stage2_tlb.walker.walkRequestOrigin_Completed::Inst            0                       # Table walker requests started/completed, data/inst
system.cpu_cluster.cpus.itb.stage2_mmu.stage2_tlb.walker.walkRequestOrigin_Completed::total            0                       # Table walker requests started/completed, data/inst
system.cpu_cluster.cpus.itb.stage2_mmu.stage2_tlb.walker.walkRequestOrigin::total            0                       # Table walker requests started/completed, data/inst
system.cpu_cluster.cpus.itb.stage2_mmu.stage2_tlb.walker.walks            0                       # Table walker walks requested
system.cpu_cluster.cpus.itb.stage2_mmu.stage2_tlb.write_accesses            0                       # DTB write accesses
system.cpu_cluster.cpus.itb.stage2_mmu.stage2_tlb.write_hits            0                       # DTB write hits
system.cpu_cluster.cpus.itb.stage2_mmu.stage2_tlb.write_misses            0                       # DTB write misses
system.cpu_cluster.cpus.itb.walker.walkRequestOrigin_Requested::Data            0                       # Table walker requests started/completed, data/inst
system.cpu_cluster.cpus.itb.walker.walkRequestOrigin_Requested::Inst            0                       # Table walker requests started/completed, data/inst
system.cpu_cluster.cpus.itb.walker.walkRequestOrigin_Requested::total            0                       # Table walker requests started/completed, data/inst
system.cpu_cluster.cpus.itb.walker.walkRequestOrigin_Completed::Data            0                       # Table walker requests started/completed, data/inst
system.cpu_cluster.cpus.itb.walker.walkRequestOrigin_Completed::Inst            0                       # Table walker requests started/completed, data/inst
system.cpu_cluster.cpus.itb.walker.walkRequestOrigin_Completed::total            0                       # Table walker requests started/completed, data/inst
system.cpu_cluster.cpus.itb.walker.walkRequestOrigin::total            0                       # Table walker requests started/completed, data/inst
system.cpu_cluster.cpus.itb.walker.walks            0                       # Table walker walks requested
system.cpu_cluster.cpus.itb.write_accesses            0                       # DTB write accesses
system.cpu_cluster.cpus.itb.write_hits              0                       # DTB write hits
system.cpu_cluster.cpus.itb.write_misses            0                       # DTB write misses
system.cpu_cluster.cpus.numCycles            31135991                       # number of cpu cycles simulated
system.cpu_cluster.cpus.numFetchSuspends            0                       # Number of times Execute suspended instruction fetching
system.cpu_cluster.cpus.numWorkItemsCompleted            0                       # number of work items this cpu completed
system.cpu_cluster.cpus.numWorkItemsStarted            0                       # number of work items this cpu started
system.cpu_cluster.cpus.op_class_0::No_OpClass        24679      0.17%      0.17% # Class of committed instruction
system.cpu_cluster.cpus.op_class_0::IntAlu      8600652     59.75%     59.92% # Class of committed instruction
system.cpu_cluster.cpus.op_class_0::IntMult         9109      0.06%     59.98% # Class of committed instruction
system.cpu_cluster.cpus.op_class_0::IntDiv           39      0.00%     59.98% # Class of committed instruction
system.cpu_cluster.cpus.op_class_0::FloatAdd         1800      0.01%     59.99% # Class of committed instruction
system.cpu_cluster.cpus.op_class_0::FloatCmp           12      0.00%     59.99% # Class of committed instruction
system.cpu_cluster.cpus.op_class_0::FloatCvt         1801      0.01%     60.01% # Class of committed instruction
system.cpu_cluster.cpus.op_class_0::FloatMult            0      0.00%     60.01% # Class of committed instruction
system.cpu_cluster.cpus.op_class_0::FloatMultAcc            0      0.00%     60.01% # Class of committed instruction
system.cpu_cluster.cpus.op_class_0::FloatDiv         1803      0.01%     60.02% # Class of committed instruction
system.cpu_cluster.cpus.op_class_0::FloatMisc        11441      0.08%     60.10% # Class of committed instruction
system.cpu_cluster.cpus.op_class_0::FloatSqrt            0      0.00%     60.10% # Class of committed instruction
system.cpu_cluster.cpus.op_class_0::SimdAdd         9048      0.06%     60.16% # Class of committed instruction
system.cpu_cluster.cpus.op_class_0::SimdAddAcc            0      0.00%     60.16% # Class of committed instruction
system.cpu_cluster.cpus.op_class_0::SimdAlu         9106      0.06%     60.22% # Class of committed instruction
system.cpu_cluster.cpus.op_class_0::SimdCmp        11692      0.08%     60.31% # Class of committed instruction
system.cpu_cluster.cpus.op_class_0::SimdCvt            2      0.00%     60.31% # Class of committed instruction
system.cpu_cluster.cpus.op_class_0::SimdMisc       100420      0.70%     61.00% # Class of committed instruction
system.cpu_cluster.cpus.op_class_0::SimdMult            0      0.00%     61.00% # Class of committed instruction
system.cpu_cluster.cpus.op_class_0::SimdMultAcc            0      0.00%     61.00% # Class of committed instruction
system.cpu_cluster.cpus.op_class_0::SimdShift            2      0.00%     61.00% # Class of committed instruction
system.cpu_cluster.cpus.op_class_0::SimdShiftAcc            0      0.00%     61.00% # Class of committed instruction
system.cpu_cluster.cpus.op_class_0::SimdDiv            0      0.00%     61.00% # Class of committed instruction
system.cpu_cluster.cpus.op_class_0::SimdSqrt            0      0.00%     61.00% # Class of committed instruction
system.cpu_cluster.cpus.op_class_0::SimdFloatAdd            0      0.00%     61.00% # Class of committed instruction
system.cpu_cluster.cpus.op_class_0::SimdFloatAlu            0      0.00%     61.00% # Class of committed instruction
system.cpu_cluster.cpus.op_class_0::SimdFloatCmp            0      0.00%     61.00% # Class of committed instruction
system.cpu_cluster.cpus.op_class_0::SimdFloatCvt            0      0.00%     61.00% # Class of committed instruction
system.cpu_cluster.cpus.op_class_0::SimdFloatDiv            0      0.00%     61.00% # Class of committed instruction
system.cpu_cluster.cpus.op_class_0::SimdFloatMisc            0      0.00%     61.00% # Class of committed instruction
system.cpu_cluster.cpus.op_class_0::SimdFloatMult            0      0.00%     61.00% # Class of committed instruction
system.cpu_cluster.cpus.op_class_0::SimdFloatMultAcc            0      0.00%     61.00% # Class of committed instruction
system.cpu_cluster.cpus.op_class_0::SimdFloatSqrt            0      0.00%     61.00% # Class of committed instruction
system.cpu_cluster.cpus.op_class_0::SimdReduceAdd            0      0.00%     61.00% # Class of committed instruction
system.cpu_cluster.cpus.op_class_0::SimdReduceAlu            0      0.00%     61.00% # Class of committed instruction
system.cpu_cluster.cpus.op_class_0::SimdReduceCmp            0      0.00%     61.00% # Class of committed instruction
system.cpu_cluster.cpus.op_class_0::SimdFloatReduceAdd            0      0.00%     61.00% # Class of committed instruction
system.cpu_cluster.cpus.op_class_0::SimdFloatReduceCmp            0      0.00%     61.00% # Class of committed instruction
system.cpu_cluster.cpus.op_class_0::SimdAes            0      0.00%     61.00% # Class of committed instruction
system.cpu_cluster.cpus.op_class_0::SimdAesMix            0      0.00%     61.00% # Class of committed instruction
system.cpu_cluster.cpus.op_class_0::SimdSha1Hash            0      0.00%     61.00% # Class of committed instruction
system.cpu_cluster.cpus.op_class_0::SimdSha1Hash2            0      0.00%     61.00% # Class of committed instruction
system.cpu_cluster.cpus.op_class_0::SimdSha256Hash            0      0.00%     61.00% # Class of committed instruction
system.cpu_cluster.cpus.op_class_0::SimdSha256Hash2            0      0.00%     61.00% # Class of committed instruction
system.cpu_cluster.cpus.op_class_0::SimdShaSigma2            0      0.00%     61.00% # Class of committed instruction
system.cpu_cluster.cpus.op_class_0::SimdShaSigma3            0      0.00%     61.00% # Class of committed instruction
system.cpu_cluster.cpus.op_class_0::SimdPredAlu            0      0.00%     61.00% # Class of committed instruction
system.cpu_cluster.cpus.op_class_0::MemRead      2913517     20.24%     81.24% # Class of committed instruction
system.cpu_cluster.cpus.op_class_0::MemWrite      2700080     18.76%    100.00% # Class of committed instruction
system.cpu_cluster.cpus.op_class_0::FloatMemRead            0      0.00%    100.00% # Class of committed instruction
system.cpu_cluster.cpus.op_class_0::FloatMemWrite            0      0.00%    100.00% # Class of committed instruction
system.cpu_cluster.cpus.op_class_0::IprAccess            0      0.00%    100.00% # Class of committed instruction
system.cpu_cluster.cpus.op_class_0::InstPrefetch            0      0.00%    100.00% # Class of committed instruction
system.cpu_cluster.cpus.op_class_0::total     14395203                       # Class of committed instruction
system.cpu_cluster.cpus.tickCycles           17815830                       # Number of cycles that the object actually ticked
system.cpu_cluster.cpus.workload.numSyscalls         3769                       # Number of system calls
system.membus.snoop_filter.hit_multi_requests            2                       # Number of requests hitting in the snoop filter with multiple (>1) holders of the requested data.
system.membus.snoop_filter.hit_multi_snoops            0                       # Number of snoops hitting in the snoop filter with multiple (>1) holders of the requested data.
system.membus.snoop_filter.hit_single_requests        73550                       # Number of requests hitting in the snoop filter with a single holder of the requested data.
system.membus.snoop_filter.hit_single_snoops            0                       # Number of snoops hitting in the snoop filter with a single holder of the requested data.
system.membus.snoop_filter.tot_requests        148123                       # Total number of requests made to the snoop filter.
system.membus.snoop_filter.tot_snoops               0                       # Total number of snoops made to the snoop filter.
system.membus.pwrStateResidencyTicks::UNDEFINED  11115548787                       # Cumulative time (in ticks) in various power states
system.membus.trans_dist::ReadResp              71190                       # Transaction distribution
system.membus.trans_dist::WritebackDirty         5046                       # Transaction distribution
system.membus.trans_dist::CleanEvict            68503                       # Transaction distribution
system.membus.trans_dist::ReadExReq              3369                       # Transaction distribution
system.membus.trans_dist::ReadExResp             3369                       # Transaction distribution
system.membus.trans_dist::ReadCleanReq          65620                       # Transaction distribution
system.membus.trans_dist::ReadSharedReq          5571                       # Transaction distribution
system.membus.trans_dist::InvalidateReq            14                       # Transaction distribution
system.membus.pkt_count_system.cpu_cluster.cpus.icache.mem_side::system.mem_ctrls.port       196346                       # Packet count per connected master and slave (bytes)
system.membus.pkt_count_system.cpu_cluster.cpus.icache.mem_side::total       196346                       # Packet count per connected master and slave (bytes)
system.membus.pkt_count_system.cpu_cluster.cpus.dcache.mem_side::system.mem_ctrls.port        26336                       # Packet count per connected master and slave (bytes)
system.membus.pkt_count_system.cpu_cluster.cpus.dcache.mem_side::total        26336                       # Packet count per connected master and slave (bytes)
system.membus.pkt_count::total                 222682                       # Packet count per connected master and slave (bytes)
system.membus.pkt_size_system.cpu_cluster.cpus.icache.mem_side::system.mem_ctrls.port      4199616                       # Cumulative packet size per connected master and slave (bytes)
system.membus.pkt_size_system.cpu_cluster.cpus.icache.mem_side::total      4199616                       # Cumulative packet size per connected master and slave (bytes)
system.membus.pkt_size_system.cpu_cluster.cpus.dcache.mem_side::system.mem_ctrls.port       895104                       # Cumulative packet size per connected master and slave (bytes)
system.membus.pkt_size_system.cpu_cluster.cpus.dcache.mem_side::total       895104                       # Cumulative packet size per connected master and slave (bytes)
system.membus.pkt_size::total                 5094720                       # Cumulative packet size per connected master and slave (bytes)
system.membus.snoops                                0                       # Total snoops (count)
system.membus.snoopTraffic                          0                       # Total snoop traffic (bytes)
system.membus.snoop_fanout::samples             74574                       # Request fanout histogram
system.membus.snoop_fanout::mean             0.000040                       # Request fanout histogram
system.membus.snoop_fanout::stdev            0.006343                       # Request fanout histogram
system.membus.snoop_fanout::underflows              0      0.00%      0.00% # Request fanout histogram
system.membus.snoop_fanout::0                   74571    100.00%    100.00% # Request fanout histogram
system.membus.snoop_fanout::1                       3      0.00%    100.00% # Request fanout histogram
system.membus.snoop_fanout::2                       0      0.00%    100.00% # Request fanout histogram
system.membus.snoop_fanout::overflows               0      0.00%    100.00% # Request fanout histogram
system.membus.snoop_fanout::min_value               0                       # Request fanout histogram
system.membus.snoop_fanout::max_value               1                       # Request fanout histogram
system.membus.snoop_fanout::total               74574                       # Request fanout histogram
system.membus.reqLayer0.occupancy           230026693                       # Layer occupancy (ticks)
system.membus.reqLayer0.utilization               2.1                       # Layer utilization (%)
system.membus.badaddr_responder.pwrStateResidencyTicks::UNDEFINED  11115548787                       # Cumulative time (in ticks) in various power states
system.membus.respLayer1.occupancy          328912290                       # Layer occupancy (ticks)
system.membus.respLayer1.utilization              3.0                       # Layer utilization (%)
system.membus.respLayer2.occupancy           45319430                       # Layer occupancy (ticks)
system.membus.respLayer2.utilization              0.4                       # Layer utilization (%)
system.voltage_domain.voltage                       1                       # Voltage in Volts
system.clk_domain.clock                          1000                       # Clock period in ticks
system.cpu_cluster.voltage_domain.voltage            1                       # Voltage in Volts
system.cpu_cluster.clk_domain.clock               357                       # Clock period in ticks
system.cpu_cluster.cpus.pwrStateResidencyTicks::ON  11115548787                       # Cumulative time (in ticks) in various power states
system.cpu_cluster.cpus.icache.pwrStateResidencyTicks::UNDEFINED  11115548787                       # Cumulative time (in ticks) in various power states
system.cpu_cluster.cpus.icache.demand_hits::.cpu_cluster.cpus.inst      4891478                       # number of demand (read+write) hits
system.cpu_cluster.cpus.icache.demand_hits::total      4891478                       # number of demand (read+write) hits
system.cpu_cluster.cpus.icache.overall_hits::.cpu_cluster.cpus.inst      4891478                       # number of overall hits
system.cpu_cluster.cpus.icache.overall_hits::total      4891478                       # number of overall hits
system.cpu_cluster.cpus.icache.demand_misses::.cpu_cluster.cpus.inst        65620                       # number of demand (read+write) misses
system.cpu_cluster.cpus.icache.demand_misses::total        65620                       # number of demand (read+write) misses
system.cpu_cluster.cpus.icache.overall_misses::.cpu_cluster.cpus.inst        65620                       # number of overall misses
system.cpu_cluster.cpus.icache.overall_misses::total        65620                       # number of overall misses
system.cpu_cluster.cpus.icache.demand_miss_latency::.cpu_cluster.cpus.inst   4568377989                       # number of demand (read+write) miss cycles
system.cpu_cluster.cpus.icache.demand_miss_latency::total   4568377989                       # number of demand (read+write) miss cycles
system.cpu_cluster.cpus.icache.overall_miss_latency::.cpu_cluster.cpus.inst   4568377989                       # number of overall miss cycles
system.cpu_cluster.cpus.icache.overall_miss_latency::total   4568377989                       # number of overall miss cycles
system.cpu_cluster.cpus.icache.demand_accesses::.cpu_cluster.cpus.inst      4957098                       # number of demand (read+write) accesses
system.cpu_cluster.cpus.icache.demand_accesses::total      4957098                       # number of demand (read+write) accesses
system.cpu_cluster.cpus.icache.overall_accesses::.cpu_cluster.cpus.inst      4957098                       # number of overall (read+write) accesses
system.cpu_cluster.cpus.icache.overall_accesses::total      4957098                       # number of overall (read+write) accesses
system.cpu_cluster.cpus.icache.demand_miss_rate::.cpu_cluster.cpus.inst     0.013238                       # miss rate for demand accesses
system.cpu_cluster.cpus.icache.demand_miss_rate::total     0.013238                       # miss rate for demand accesses
system.cpu_cluster.cpus.icache.overall_miss_rate::.cpu_cluster.cpus.inst     0.013238                       # miss rate for overall accesses
system.cpu_cluster.cpus.icache.overall_miss_rate::total     0.013238                       # miss rate for overall accesses
system.cpu_cluster.cpus.icache.demand_avg_miss_latency::.cpu_cluster.cpus.inst 69618.683161                       # average overall miss latency
system.cpu_cluster.cpus.icache.demand_avg_miss_latency::total 69618.683161                       # average overall miss latency
system.cpu_cluster.cpus.icache.overall_avg_miss_latency::.cpu_cluster.cpus.inst 69618.683161                       # average overall miss latency
system.cpu_cluster.cpus.icache.overall_avg_miss_latency::total 69618.683161                       # average overall miss latency
system.cpu_cluster.cpus.icache.blocked_cycles::no_mshrs            0                       # number of cycles access was blocked
system.cpu_cluster.cpus.icache.blocked_cycles::no_targets            0                       # number of cycles access was blocked
system.cpu_cluster.cpus.icache.blocked::no_mshrs            0                       # number of cycles access was blocked
system.cpu_cluster.cpus.icache.blocked::no_targets            0                       # number of cycles access was blocked
system.cpu_cluster.cpus.icache.avg_blocked_cycles::no_mshrs          nan                       # average number of cycles each access was blocked
system.cpu_cluster.cpus.icache.avg_blocked_cycles::no_targets          nan                       # average number of cycles each access was blocked
system.cpu_cluster.cpus.icache.demand_mshr_misses::.cpu_cluster.cpus.inst        65620                       # number of demand (read+write) MSHR misses
system.cpu_cluster.cpus.icache.demand_mshr_misses::total        65620                       # number of demand (read+write) MSHR misses
system.cpu_cluster.cpus.icache.overall_mshr_misses::.cpu_cluster.cpus.inst        65620                       # number of overall MSHR misses
system.cpu_cluster.cpus.icache.overall_mshr_misses::total        65620                       # number of overall MSHR misses
system.cpu_cluster.cpus.icache.demand_mshr_miss_latency::.cpu_cluster.cpus.inst   4509707051                       # number of demand (read+write) MSHR miss cycles
system.cpu_cluster.cpus.icache.demand_mshr_miss_latency::total   4509707051                       # number of demand (read+write) MSHR miss cycles
system.cpu_cluster.cpus.icache.overall_mshr_miss_latency::.cpu_cluster.cpus.inst   4509707051                       # number of overall MSHR miss cycles
system.cpu_cluster.cpus.icache.overall_mshr_miss_latency::total   4509707051                       # number of overall MSHR miss cycles
system.cpu_cluster.cpus.icache.demand_mshr_miss_rate::.cpu_cluster.cpus.inst     0.013238                       # mshr miss rate for demand accesses
system.cpu_cluster.cpus.icache.demand_mshr_miss_rate::total     0.013238                       # mshr miss rate for demand accesses
system.cpu_cluster.cpus.icache.overall_mshr_miss_rate::.cpu_cluster.cpus.inst     0.013238                       # mshr miss rate for overall accesses
system.cpu_cluster.cpus.icache.overall_mshr_miss_rate::total     0.013238                       # mshr miss rate for overall accesses
system.cpu_cluster.cpus.icache.demand_avg_mshr_miss_latency::.cpu_cluster.cpus.inst 68724.581698                       # average overall mshr miss latency
system.cpu_cluster.cpus.icache.demand_avg_mshr_miss_latency::total 68724.581698                       # average overall mshr miss latency
system.cpu_cluster.cpus.icache.overall_avg_mshr_miss_latency::.cpu_cluster.cpus.inst 68724.581698                       # average overall mshr miss latency
system.cpu_cluster.cpus.icache.overall_avg_mshr_miss_latency::total 68724.581698                       # average overall mshr miss latency
system.cpu_cluster.cpus.icache.replacements        65107                       # number of replacements
system.cpu_cluster.cpus.icache.ReadReq_hits::.cpu_cluster.cpus.inst      4891478                       # number of ReadReq hits
system.cpu_cluster.cpus.icache.ReadReq_hits::total      4891478                       # number of ReadReq hits
system.cpu_cluster.cpus.icache.ReadReq_misses::.cpu_cluster.cpus.inst        65620                       # number of ReadReq misses
system.cpu_cluster.cpus.icache.ReadReq_misses::total        65620                       # number of ReadReq misses
system.cpu_cluster.cpus.icache.ReadReq_miss_latency::.cpu_cluster.cpus.inst   4568377989                       # number of ReadReq miss cycles
system.cpu_cluster.cpus.icache.ReadReq_miss_latency::total   4568377989                       # number of ReadReq miss cycles
system.cpu_cluster.cpus.icache.ReadReq_accesses::.cpu_cluster.cpus.inst      4957098                       # number of ReadReq accesses(hits+misses)
system.cpu_cluster.cpus.icache.ReadReq_accesses::total      4957098                       # number of ReadReq accesses(hits+misses)
system.cpu_cluster.cpus.icache.ReadReq_miss_rate::.cpu_cluster.cpus.inst     0.013238                       # miss rate for ReadReq accesses
system.cpu_cluster.cpus.icache.ReadReq_miss_rate::total     0.013238                       # miss rate for ReadReq accesses
system.cpu_cluster.cpus.icache.ReadReq_avg_miss_latency::.cpu_cluster.cpus.inst 69618.683161                       # average ReadReq miss latency
system.cpu_cluster.cpus.icache.ReadReq_avg_miss_latency::total 69618.683161                       # average ReadReq miss latency
system.cpu_cluster.cpus.icache.ReadReq_mshr_misses::.cpu_cluster.cpus.inst        65620                       # number of ReadReq MSHR misses
system.cpu_cluster.cpus.icache.ReadReq_mshr_misses::total        65620                       # number of ReadReq MSHR misses
system.cpu_cluster.cpus.icache.ReadReq_mshr_miss_latency::.cpu_cluster.cpus.inst   4509707051                       # number of ReadReq MSHR miss cycles
system.cpu_cluster.cpus.icache.ReadReq_mshr_miss_latency::total   4509707051                       # number of ReadReq MSHR miss cycles
system.cpu_cluster.cpus.icache.ReadReq_mshr_miss_rate::.cpu_cluster.cpus.inst     0.013238                       # mshr miss rate for ReadReq accesses
system.cpu_cluster.cpus.icache.ReadReq_mshr_miss_rate::total     0.013238                       # mshr miss rate for ReadReq accesses
system.cpu_cluster.cpus.icache.ReadReq_avg_mshr_miss_latency::.cpu_cluster.cpus.inst 68724.581698                       # average ReadReq mshr miss latency
system.cpu_cluster.cpus.icache.ReadReq_avg_mshr_miss_latency::total 68724.581698                       # average ReadReq mshr miss latency
system.cpu_cluster.cpus.icache.tags.pwrStateResidencyTicks::UNDEFINED  11115548787                       # Cumulative time (in ticks) in various power states
system.cpu_cluster.cpus.icache.tags.tagsinuse   507.686687                       # Cycle average of tags in use
system.cpu_cluster.cpus.icache.tags.total_refs      4957097                       # Total number of references to valid blocks.
system.cpu_cluster.cpus.icache.tags.sampled_refs        65619                       # Sample count of references to valid blocks.
system.cpu_cluster.cpus.icache.tags.avg_refs    75.543623                       # Average number of references to valid blocks.
system.cpu_cluster.cpus.icache.tags.warmup_cycle        92000                       # Cycle when the warmup percentage was hit.
system.cpu_cluster.cpus.icache.tags.occ_blocks::.cpu_cluster.cpus.inst   507.686687                       # Average occupied blocks per requestor
system.cpu_cluster.cpus.icache.tags.occ_percent::.cpu_cluster.cpus.inst     0.991576                       # Average percentage of cache occupancy
system.cpu_cluster.cpus.icache.tags.occ_percent::total     0.991576                       # Average percentage of cache occupancy
system.cpu_cluster.cpus.icache.tags.occ_task_id_blocks::1024          512                       # Occupied blocks per task id
system.cpu_cluster.cpus.icache.tags.age_task_id_blocks_1024::0           92                       # Occupied blocks per task id
system.cpu_cluster.cpus.icache.tags.age_task_id_blocks_1024::1          260                       # Occupied blocks per task id
system.cpu_cluster.cpus.icache.tags.age_task_id_blocks_1024::2            6                       # Occupied blocks per task id
system.cpu_cluster.cpus.icache.tags.age_task_id_blocks_1024::3           67                       # Occupied blocks per task id
system.cpu_cluster.cpus.icache.tags.age_task_id_blocks_1024::4           87                       # Occupied blocks per task id
system.cpu_cluster.cpus.icache.tags.occ_task_id_percent::1024            1                       # Percentage of cache occupancy per task id
system.cpu_cluster.cpus.icache.tags.tag_accesses      9979815                       # Number of tag accesses
system.cpu_cluster.cpus.icache.tags.data_accesses      9979815                       # Number of data accesses
system.cpu_cluster.cpus.dtb.walker.pwrStateResidencyTicks::UNDEFINED  11115548787                       # Cumulative time (in ticks) in various power states
system.cpu_cluster.cpus.dtb.stage2_mmu.stage2_tlb.walker.pwrStateResidencyTicks::UNDEFINED  11115548787                       # Cumulative time (in ticks) in various power states
system.cpu_cluster.cpus.dcache.pwrStateResidencyTicks::UNDEFINED  11115548787                       # Cumulative time (in ticks) in various power states
system.cpu_cluster.cpus.dcache.demand_hits::.cpu_cluster.cpus.data      5614163                       # number of demand (read+write) hits
system.cpu_cluster.cpus.dcache.demand_hits::total      5614163                       # number of demand (read+write) hits
system.cpu_cluster.cpus.dcache.overall_hits::.cpu_cluster.cpus.data      5614163                       # number of overall hits
system.cpu_cluster.cpus.dcache.overall_hits::total      5614163                       # number of overall hits
system.cpu_cluster.cpus.dcache.demand_misses::.cpu_cluster.cpus.data        10820                       # number of demand (read+write) misses
system.cpu_cluster.cpus.dcache.demand_misses::total        10820                       # number of demand (read+write) misses
system.cpu_cluster.cpus.dcache.overall_misses::.cpu_cluster.cpus.data        10820                       # number of overall misses
system.cpu_cluster.cpus.dcache.overall_misses::total        10820                       # number of overall misses
system.cpu_cluster.cpus.dcache.demand_miss_latency::.cpu_cluster.cpus.data    772605321                       # number of demand (read+write) miss cycles
system.cpu_cluster.cpus.dcache.demand_miss_latency::total    772605321                       # number of demand (read+write) miss cycles
system.cpu_cluster.cpus.dcache.overall_miss_latency::.cpu_cluster.cpus.data    772605321                       # number of overall miss cycles
system.cpu_cluster.cpus.dcache.overall_miss_latency::total    772605321                       # number of overall miss cycles
system.cpu_cluster.cpus.dcache.demand_accesses::.cpu_cluster.cpus.data      5624983                       # number of demand (read+write) accesses
system.cpu_cluster.cpus.dcache.demand_accesses::total      5624983                       # number of demand (read+write) accesses
system.cpu_cluster.cpus.dcache.overall_accesses::.cpu_cluster.cpus.data      5624983                       # number of overall (read+write) accesses
system.cpu_cluster.cpus.dcache.overall_accesses::total      5624983                       # number of overall (read+write) accesses
system.cpu_cluster.cpus.dcache.demand_miss_rate::.cpu_cluster.cpus.data     0.001924                       # miss rate for demand accesses
system.cpu_cluster.cpus.dcache.demand_miss_rate::total     0.001924                       # miss rate for demand accesses
system.cpu_cluster.cpus.dcache.overall_miss_rate::.cpu_cluster.cpus.data     0.001924                       # miss rate for overall accesses
system.cpu_cluster.cpus.dcache.overall_miss_rate::total     0.001924                       # miss rate for overall accesses
system.cpu_cluster.cpus.dcache.demand_avg_miss_latency::.cpu_cluster.cpus.data 71405.297689                       # average overall miss latency
system.cpu_cluster.cpus.dcache.demand_avg_miss_latency::total 71405.297689                       # average overall miss latency
system.cpu_cluster.cpus.dcache.overall_avg_miss_latency::.cpu_cluster.cpus.data 71405.297689                       # average overall miss latency
system.cpu_cluster.cpus.dcache.overall_avg_miss_latency::total 71405.297689                       # average overall miss latency
system.cpu_cluster.cpus.dcache.blocked_cycles::no_mshrs            0                       # number of cycles access was blocked
system.cpu_cluster.cpus.dcache.blocked_cycles::no_targets            0                       # number of cycles access was blocked
system.cpu_cluster.cpus.dcache.blocked::no_mshrs            0                       # number of cycles access was blocked
system.cpu_cluster.cpus.dcache.blocked::no_targets            0                       # number of cycles access was blocked
system.cpu_cluster.cpus.dcache.avg_blocked_cycles::no_mshrs          nan                       # average number of cycles each access was blocked
system.cpu_cluster.cpus.dcache.avg_blocked_cycles::no_targets          nan                       # average number of cycles each access was blocked
system.cpu_cluster.cpus.dcache.writebacks::.writebacks         5046                       # number of writebacks
system.cpu_cluster.cpus.dcache.writebacks::total         5046                       # number of writebacks
system.cpu_cluster.cpus.dcache.demand_mshr_hits::.cpu_cluster.cpus.data         1869                       # number of demand (read+write) MSHR hits
system.cpu_cluster.cpus.dcache.demand_mshr_hits::total         1869                       # number of demand (read+write) MSHR hits
system.cpu_cluster.cpus.dcache.overall_mshr_hits::.cpu_cluster.cpus.data         1869                       # number of overall MSHR hits
system.cpu_cluster.cpus.dcache.overall_mshr_hits::total         1869                       # number of overall MSHR hits
system.cpu_cluster.cpus.dcache.demand_mshr_misses::.cpu_cluster.cpus.data         8951                       # number of demand (read+write) MSHR misses
system.cpu_cluster.cpus.dcache.demand_mshr_misses::total         8951                       # number of demand (read+write) MSHR misses
system.cpu_cluster.cpus.dcache.overall_mshr_misses::.cpu_cluster.cpus.data         8951                       # number of overall MSHR misses
system.cpu_cluster.cpus.dcache.overall_mshr_misses::total         8951                       # number of overall MSHR misses
system.cpu_cluster.cpus.dcache.demand_mshr_miss_latency::.cpu_cluster.cpus.data    650681506                       # number of demand (read+write) MSHR miss cycles
system.cpu_cluster.cpus.dcache.demand_mshr_miss_latency::total    650681506                       # number of demand (read+write) MSHR miss cycles
system.cpu_cluster.cpus.dcache.overall_mshr_miss_latency::.cpu_cluster.cpus.data    650681506                       # number of overall MSHR miss cycles
system.cpu_cluster.cpus.dcache.overall_mshr_miss_latency::total    650681506                       # number of overall MSHR miss cycles
system.cpu_cluster.cpus.dcache.demand_mshr_miss_rate::.cpu_cluster.cpus.data     0.001591                       # mshr miss rate for demand accesses
system.cpu_cluster.cpus.dcache.demand_mshr_miss_rate::total     0.001591                       # mshr miss rate for demand accesses
system.cpu_cluster.cpus.dcache.overall_mshr_miss_rate::.cpu_cluster.cpus.data     0.001591                       # mshr miss rate for overall accesses
system.cpu_cluster.cpus.dcache.overall_mshr_miss_rate::total     0.001591                       # mshr miss rate for overall accesses
system.cpu_cluster.cpus.dcache.demand_avg_mshr_miss_latency::.cpu_cluster.cpus.data 72693.722042                       # average overall mshr miss latency
system.cpu_cluster.cpus.dcache.demand_avg_mshr_miss_latency::total 72693.722042                       # average overall mshr miss latency
system.cpu_cluster.cpus.dcache.overall_avg_mshr_miss_latency::.cpu_cluster.cpus.data 72693.722042                       # average overall mshr miss latency
system.cpu_cluster.cpus.dcache.overall_avg_mshr_miss_latency::total 72693.722042                       # average overall mshr miss latency
system.cpu_cluster.cpus.dcache.replacements         8442                       # number of replacements
system.cpu_cluster.cpus.dcache.ReadReq_hits::.cpu_cluster.cpus.data      2917558                       # number of ReadReq hits
system.cpu_cluster.cpus.dcache.ReadReq_hits::total      2917558                       # number of ReadReq hits
system.cpu_cluster.cpus.dcache.ReadReq_misses::.cpu_cluster.cpus.data         5588                       # number of ReadReq misses
system.cpu_cluster.cpus.dcache.ReadReq_misses::total         5588                       # number of ReadReq misses
system.cpu_cluster.cpus.dcache.ReadReq_miss_latency::.cpu_cluster.cpus.data    404143521                       # number of ReadReq miss cycles
system.cpu_cluster.cpus.dcache.ReadReq_miss_latency::total    404143521                       # number of ReadReq miss cycles
system.cpu_cluster.cpus.dcache.ReadReq_accesses::.cpu_cluster.cpus.data      2923146                       # number of ReadReq accesses(hits+misses)
system.cpu_cluster.cpus.dcache.ReadReq_accesses::total      2923146                       # number of ReadReq accesses(hits+misses)
system.cpu_cluster.cpus.dcache.ReadReq_miss_rate::.cpu_cluster.cpus.data     0.001912                       # miss rate for ReadReq accesses
system.cpu_cluster.cpus.dcache.ReadReq_miss_rate::total     0.001912                       # miss rate for ReadReq accesses
system.cpu_cluster.cpus.dcache.ReadReq_avg_miss_latency::.cpu_cluster.cpus.data 72323.464746                       # average ReadReq miss latency
system.cpu_cluster.cpus.dcache.ReadReq_avg_miss_latency::total 72323.464746                       # average ReadReq miss latency
system.cpu_cluster.cpus.dcache.ReadReq_mshr_hits::.cpu_cluster.cpus.data           18                       # number of ReadReq MSHR hits
system.cpu_cluster.cpus.dcache.ReadReq_mshr_hits::total           18                       # number of ReadReq MSHR hits
system.cpu_cluster.cpus.dcache.ReadReq_mshr_misses::.cpu_cluster.cpus.data         5570                       # number of ReadReq MSHR misses
system.cpu_cluster.cpus.dcache.ReadReq_mshr_misses::total         5570                       # number of ReadReq MSHR misses
system.cpu_cluster.cpus.dcache.ReadReq_mshr_miss_latency::.cpu_cluster.cpus.data    397268068                       # number of ReadReq MSHR miss cycles
system.cpu_cluster.cpus.dcache.ReadReq_mshr_miss_latency::total    397268068                       # number of ReadReq MSHR miss cycles
system.cpu_cluster.cpus.dcache.ReadReq_mshr_miss_rate::.cpu_cluster.cpus.data     0.001905                       # mshr miss rate for ReadReq accesses
system.cpu_cluster.cpus.dcache.ReadReq_mshr_miss_rate::total     0.001905                       # mshr miss rate for ReadReq accesses
system.cpu_cluster.cpus.dcache.ReadReq_avg_mshr_miss_latency::.cpu_cluster.cpus.data 71322.812926                       # average ReadReq mshr miss latency
system.cpu_cluster.cpus.dcache.ReadReq_avg_mshr_miss_latency::total 71322.812926                       # average ReadReq mshr miss latency
system.cpu_cluster.cpus.dcache.WriteReq_hits::.cpu_cluster.cpus.data      2696604                       # number of WriteReq hits
system.cpu_cluster.cpus.dcache.WriteReq_hits::total      2696604                       # number of WriteReq hits
system.cpu_cluster.cpus.dcache.WriteReq_misses::.cpu_cluster.cpus.data         5218                       # number of WriteReq misses
system.cpu_cluster.cpus.dcache.WriteReq_misses::total         5218                       # number of WriteReq misses
system.cpu_cluster.cpus.dcache.WriteReq_miss_latency::.cpu_cluster.cpus.data    368312574                       # number of WriteReq miss cycles
system.cpu_cluster.cpus.dcache.WriteReq_miss_latency::total    368312574                       # number of WriteReq miss cycles
system.cpu_cluster.cpus.dcache.WriteReq_accesses::.cpu_cluster.cpus.data      2701822                       # number of WriteReq accesses(hits+misses)
system.cpu_cluster.cpus.dcache.WriteReq_accesses::total      2701822                       # number of WriteReq accesses(hits+misses)
system.cpu_cluster.cpus.dcache.WriteReq_miss_rate::.cpu_cluster.cpus.data     0.001931                       # miss rate for WriteReq accesses
system.cpu_cluster.cpus.dcache.WriteReq_miss_rate::total     0.001931                       # miss rate for WriteReq accesses
system.cpu_cluster.cpus.dcache.WriteReq_avg_miss_latency::.cpu_cluster.cpus.data 70585.008432                       # average WriteReq miss latency
system.cpu_cluster.cpus.dcache.WriteReq_avg_miss_latency::total 70585.008432                       # average WriteReq miss latency
system.cpu_cluster.cpus.dcache.WriteReq_mshr_hits::.cpu_cluster.cpus.data         1851                       # number of WriteReq MSHR hits
system.cpu_cluster.cpus.dcache.WriteReq_mshr_hits::total         1851                       # number of WriteReq MSHR hits
system.cpu_cluster.cpus.dcache.WriteReq_mshr_misses::.cpu_cluster.cpus.data         3367                       # number of WriteReq MSHR misses
system.cpu_cluster.cpus.dcache.WriteReq_mshr_misses::total         3367                       # number of WriteReq MSHR misses
system.cpu_cluster.cpus.dcache.WriteReq_mshr_miss_latency::.cpu_cluster.cpus.data    253276262                       # number of WriteReq MSHR miss cycles
system.cpu_cluster.cpus.dcache.WriteReq_mshr_miss_latency::total    253276262                       # number of WriteReq MSHR miss cycles
system.cpu_cluster.cpus.dcache.WriteReq_mshr_miss_rate::.cpu_cluster.cpus.data     0.001246                       # mshr miss rate for WriteReq accesses
system.cpu_cluster.cpus.dcache.WriteReq_mshr_miss_rate::total     0.001246                       # mshr miss rate for WriteReq accesses
system.cpu_cluster.cpus.dcache.WriteReq_avg_mshr_miss_latency::.cpu_cluster.cpus.data 75223.125037                       # average WriteReq mshr miss latency
system.cpu_cluster.cpus.dcache.WriteReq_avg_mshr_miss_latency::total 75223.125037                       # average WriteReq mshr miss latency
system.cpu_cluster.cpus.dcache.WriteLineReq_hits::.cpu_cluster.cpus.data            1                       # number of WriteLineReq hits
system.cpu_cluster.cpus.dcache.WriteLineReq_hits::total            1                       # number of WriteLineReq hits
system.cpu_cluster.cpus.dcache.WriteLineReq_misses::.cpu_cluster.cpus.data           14                       # number of WriteLineReq misses
system.cpu_cluster.cpus.dcache.WriteLineReq_misses::total           14                       # number of WriteLineReq misses
system.cpu_cluster.cpus.dcache.WriteLineReq_miss_latency::.cpu_cluster.cpus.data       149226                       # number of WriteLineReq miss cycles
system.cpu_cluster.cpus.dcache.WriteLineReq_miss_latency::total       149226                       # number of WriteLineReq miss cycles
system.cpu_cluster.cpus.dcache.WriteLineReq_accesses::.cpu_cluster.cpus.data           15                       # number of WriteLineReq accesses(hits+misses)
system.cpu_cluster.cpus.dcache.WriteLineReq_accesses::total           15                       # number of WriteLineReq accesses(hits+misses)
system.cpu_cluster.cpus.dcache.WriteLineReq_miss_rate::.cpu_cluster.cpus.data     0.933333                       # miss rate for WriteLineReq accesses
system.cpu_cluster.cpus.dcache.WriteLineReq_miss_rate::total     0.933333                       # miss rate for WriteLineReq accesses
system.cpu_cluster.cpus.dcache.WriteLineReq_avg_miss_latency::.cpu_cluster.cpus.data        10659                       # average WriteLineReq miss latency
system.cpu_cluster.cpus.dcache.WriteLineReq_avg_miss_latency::total        10659                       # average WriteLineReq miss latency
system.cpu_cluster.cpus.dcache.WriteLineReq_mshr_misses::.cpu_cluster.cpus.data           14                       # number of WriteLineReq MSHR misses
system.cpu_cluster.cpus.dcache.WriteLineReq_mshr_misses::total           14                       # number of WriteLineReq MSHR misses
system.cpu_cluster.cpus.dcache.WriteLineReq_mshr_miss_latency::.cpu_cluster.cpus.data       137176                       # number of WriteLineReq MSHR miss cycles
system.cpu_cluster.cpus.dcache.WriteLineReq_mshr_miss_latency::total       137176                       # number of WriteLineReq MSHR miss cycles
system.cpu_cluster.cpus.dcache.WriteLineReq_mshr_miss_rate::.cpu_cluster.cpus.data     0.933333                       # mshr miss rate for WriteLineReq accesses
system.cpu_cluster.cpus.dcache.WriteLineReq_mshr_miss_rate::total     0.933333                       # mshr miss rate for WriteLineReq accesses
system.cpu_cluster.cpus.dcache.WriteLineReq_avg_mshr_miss_latency::.cpu_cluster.cpus.data  9798.285714                       # average WriteLineReq mshr miss latency
system.cpu_cluster.cpus.dcache.WriteLineReq_avg_mshr_miss_latency::total  9798.285714                       # average WriteLineReq mshr miss latency
system.cpu_cluster.cpus.dcache.LoadLockedReq_hits::.cpu_cluster.cpus.data           23                       # number of LoadLockedReq hits
system.cpu_cluster.cpus.dcache.LoadLockedReq_hits::total           23                       # number of LoadLockedReq hits
system.cpu_cluster.cpus.dcache.LoadLockedReq_misses::.cpu_cluster.cpus.data            1                       # number of LoadLockedReq misses
system.cpu_cluster.cpus.dcache.LoadLockedReq_misses::total            1                       # number of LoadLockedReq misses
system.cpu_cluster.cpus.dcache.LoadLockedReq_miss_latency::.cpu_cluster.cpus.data        93177                       # number of LoadLockedReq miss cycles
system.cpu_cluster.cpus.dcache.LoadLockedReq_miss_latency::total        93177                       # number of LoadLockedReq miss cycles
system.cpu_cluster.cpus.dcache.LoadLockedReq_accesses::.cpu_cluster.cpus.data           24                       # number of LoadLockedReq accesses(hits+misses)
system.cpu_cluster.cpus.dcache.LoadLockedReq_accesses::total           24                       # number of LoadLockedReq accesses(hits+misses)
system.cpu_cluster.cpus.dcache.LoadLockedReq_miss_rate::.cpu_cluster.cpus.data     0.041667                       # miss rate for LoadLockedReq accesses
system.cpu_cluster.cpus.dcache.LoadLockedReq_miss_rate::total     0.041667                       # miss rate for LoadLockedReq accesses
system.cpu_cluster.cpus.dcache.LoadLockedReq_avg_miss_latency::.cpu_cluster.cpus.data        93177                       # average LoadLockedReq miss latency
system.cpu_cluster.cpus.dcache.LoadLockedReq_avg_miss_latency::total        93177                       # average LoadLockedReq miss latency
system.cpu_cluster.cpus.dcache.LoadLockedReq_mshr_misses::.cpu_cluster.cpus.data            1                       # number of LoadLockedReq MSHR misses
system.cpu_cluster.cpus.dcache.LoadLockedReq_mshr_misses::total            1                       # number of LoadLockedReq MSHR misses
system.cpu_cluster.cpus.dcache.LoadLockedReq_mshr_miss_latency::.cpu_cluster.cpus.data        92178                       # number of LoadLockedReq MSHR miss cycles
system.cpu_cluster.cpus.dcache.LoadLockedReq_mshr_miss_latency::total        92178                       # number of LoadLockedReq MSHR miss cycles
system.cpu_cluster.cpus.dcache.LoadLockedReq_mshr_miss_rate::.cpu_cluster.cpus.data     0.041667                       # mshr miss rate for LoadLockedReq accesses
system.cpu_cluster.cpus.dcache.LoadLockedReq_mshr_miss_rate::total     0.041667                       # mshr miss rate for LoadLockedReq accesses
system.cpu_cluster.cpus.dcache.LoadLockedReq_avg_mshr_miss_latency::.cpu_cluster.cpus.data        92178                       # average LoadLockedReq mshr miss latency
system.cpu_cluster.cpus.dcache.LoadLockedReq_avg_mshr_miss_latency::total        92178                       # average LoadLockedReq mshr miss latency
system.cpu_cluster.cpus.dcache.StoreCondReq_hits::.cpu_cluster.cpus.data           24                       # number of StoreCondReq hits
system.cpu_cluster.cpus.dcache.StoreCondReq_hits::total           24                       # number of StoreCondReq hits
system.cpu_cluster.cpus.dcache.StoreCondReq_accesses::.cpu_cluster.cpus.data           24                       # number of StoreCondReq accesses(hits+misses)
system.cpu_cluster.cpus.dcache.StoreCondReq_accesses::total           24                       # number of StoreCondReq accesses(hits+misses)
system.cpu_cluster.cpus.dcache.SwapReq_hits::.cpu_cluster.cpus.data          600                       # number of SwapReq hits
system.cpu_cluster.cpus.dcache.SwapReq_hits::total          600                       # number of SwapReq hits
system.cpu_cluster.cpus.dcache.SwapReq_misses::.cpu_cluster.cpus.data            2                       # number of SwapReq misses
system.cpu_cluster.cpus.dcache.SwapReq_misses::total            2                       # number of SwapReq misses
system.cpu_cluster.cpus.dcache.SwapReq_miss_latency::.cpu_cluster.cpus.data       186354                       # number of SwapReq miss cycles
system.cpu_cluster.cpus.dcache.SwapReq_miss_latency::total       186354                       # number of SwapReq miss cycles
system.cpu_cluster.cpus.dcache.SwapReq_accesses::.cpu_cluster.cpus.data          602                       # number of SwapReq accesses(hits+misses)
system.cpu_cluster.cpus.dcache.SwapReq_accesses::total          602                       # number of SwapReq accesses(hits+misses)
system.cpu_cluster.cpus.dcache.SwapReq_miss_rate::.cpu_cluster.cpus.data     0.003322                       # miss rate for SwapReq accesses
system.cpu_cluster.cpus.dcache.SwapReq_miss_rate::total     0.003322                       # miss rate for SwapReq accesses
system.cpu_cluster.cpus.dcache.SwapReq_avg_miss_latency::.cpu_cluster.cpus.data        93177                       # average SwapReq miss latency
system.cpu_cluster.cpus.dcache.SwapReq_avg_miss_latency::total        93177                       # average SwapReq miss latency
system.cpu_cluster.cpus.dcache.SwapReq_mshr_misses::.cpu_cluster.cpus.data            2                       # number of SwapReq MSHR misses
system.cpu_cluster.cpus.dcache.SwapReq_mshr_misses::total            2                       # number of SwapReq MSHR misses
system.cpu_cluster.cpus.dcache.SwapReq_mshr_miss_latency::.cpu_cluster.cpus.data       184353                       # number of SwapReq MSHR miss cycles
system.cpu_cluster.cpus.dcache.SwapReq_mshr_miss_latency::total       184353                       # number of SwapReq MSHR miss cycles
system.cpu_cluster.cpus.dcache.SwapReq_mshr_miss_rate::.cpu_cluster.cpus.data     0.003322                       # mshr miss rate for SwapReq accesses
system.cpu_cluster.cpus.dcache.SwapReq_mshr_miss_rate::total     0.003322                       # mshr miss rate for SwapReq accesses
system.cpu_cluster.cpus.dcache.SwapReq_avg_mshr_miss_latency::.cpu_cluster.cpus.data 92176.500000                       # average SwapReq mshr miss latency
system.cpu_cluster.cpus.dcache.SwapReq_avg_mshr_miss_latency::total 92176.500000                       # average SwapReq mshr miss latency
system.cpu_cluster.cpus.dcache.tags.pwrStateResidencyTicks::UNDEFINED  11115548787                       # Cumulative time (in ticks) in various power states
system.cpu_cluster.cpus.dcache.tags.tagsinuse   508.198905                       # Cycle average of tags in use
system.cpu_cluster.cpus.dcache.tags.total_refs      5623764                       # Total number of references to valid blocks.
system.cpu_cluster.cpus.dcache.tags.sampled_refs         8954                       # Sample count of references to valid blocks.
system.cpu_cluster.cpus.dcache.tags.avg_refs   628.072817                       # Average number of references to valid blocks.
system.cpu_cluster.cpus.dcache.tags.warmup_cycle       170000                       # Cycle when the warmup percentage was hit.
system.cpu_cluster.cpus.dcache.tags.occ_blocks::.cpu_cluster.cpus.data   508.198905                       # Average occupied blocks per requestor
system.cpu_cluster.cpus.dcache.tags.occ_percent::.cpu_cluster.cpus.data     0.992576                       # Average percentage of cache occupancy
system.cpu_cluster.cpus.dcache.tags.occ_percent::total     0.992576                       # Average percentage of cache occupancy
system.cpu_cluster.cpus.dcache.tags.occ_task_id_blocks::1024          512                       # Occupied blocks per task id
system.cpu_cluster.cpus.dcache.tags.age_task_id_blocks_1024::0           44                       # Occupied blocks per task id
system.cpu_cluster.cpus.dcache.tags.age_task_id_blocks_1024::1          393                       # Occupied blocks per task id
system.cpu_cluster.cpus.dcache.tags.age_task_id_blocks_1024::2           38                       # Occupied blocks per task id
system.cpu_cluster.cpus.dcache.tags.age_task_id_blocks_1024::3           37                       # Occupied blocks per task id
system.cpu_cluster.cpus.dcache.tags.occ_task_id_percent::1024            1                       # Percentage of cache occupancy per task id
system.cpu_cluster.cpus.dcache.tags.tag_accesses     22511486                       # Number of tag accesses
system.cpu_cluster.cpus.dcache.tags.data_accesses     22511486                       # Number of data accesses
system.cpu_cluster.cpus.itb.walker.pwrStateResidencyTicks::UNDEFINED  11115548787                       # Cumulative time (in ticks) in various power states
system.cpu_cluster.cpus.itb.stage2_mmu.stage2_tlb.walker.pwrStateResidencyTicks::UNDEFINED  11115548787                       # Cumulative time (in ticks) in various power states
system.mem_ctrls.pwrStateResidencyTicks::UNDEFINED  11115548787                       # Cumulative time (in ticks) in various power states
system.mem_ctrls.bytes_read::.cpu_cluster.cpus.inst      4199616                       # Number of bytes read from this memory
system.mem_ctrls.bytes_read::.cpu_cluster.cpus.data       572160                       # Number of bytes read from this memory
system.mem_ctrls.bytes_read::total            4771776                       # Number of bytes read from this memory
system.mem_ctrls.bytes_inst_read::.cpu_cluster.cpus.inst      4199616                       # Number of instructions bytes read from this memory
system.mem_ctrls.bytes_inst_read::total       4199616                       # Number of instructions bytes read from this memory
system.mem_ctrls.bytes_written::.writebacks       322944                       # Number of bytes written to this memory
system.mem_ctrls.bytes_written::total          322944                       # Number of bytes written to this memory
system.mem_ctrls.num_reads::.cpu_cluster.cpus.inst        65619                       # Number of read requests responded to by this memory
system.mem_ctrls.num_reads::.cpu_cluster.cpus.data         8940                       # Number of read requests responded to by this memory
system.mem_ctrls.num_reads::total               74559                       # Number of read requests responded to by this memory
system.mem_ctrls.num_writes::.writebacks         5046                       # Number of write requests responded to by this memory
system.mem_ctrls.num_writes::total               5046                       # Number of write requests responded to by this memory
system.mem_ctrls.bw_read::.cpu_cluster.cpus.inst    377814544                       # Total read bandwidth from this memory (bytes/s)
system.mem_ctrls.bw_read::.cpu_cluster.cpus.data     51473842                       # Total read bandwidth from this memory (bytes/s)
system.mem_ctrls.bw_read::total             429288386                       # Total read bandwidth from this memory (bytes/s)
system.mem_ctrls.bw_inst_read::.cpu_cluster.cpus.inst    377814544                       # Instruction read bandwidth from this memory (bytes/s)
system.mem_ctrls.bw_inst_read::total        377814544                       # Instruction read bandwidth from this memory (bytes/s)
system.mem_ctrls.bw_write::.writebacks       29053356                       # Write bandwidth from this memory (bytes/s)
system.mem_ctrls.bw_write::total             29053356                       # Write bandwidth from this memory (bytes/s)
system.mem_ctrls.bw_total::.writebacks       29053356                       # Total bandwidth to/from this memory (bytes/s)
system.mem_ctrls.bw_total::.cpu_cluster.cpus.inst    377814544                       # Total bandwidth to/from this memory (bytes/s)
system.mem_ctrls.bw_total::.cpu_cluster.cpus.data     51473842                       # Total bandwidth to/from this memory (bytes/s)
system.mem_ctrls.bw_total::total            458341743                       # Total bandwidth to/from this memory (bytes/s)
system.mem_ctrls.avgPriority_.writebacks::samples      9625.00                       # Average QoS priority value for accepted requests
system.mem_ctrls.avgPriority_.cpu_cluster.cpus.inst::samples    131240.00                       # Average QoS priority value for accepted requests
system.mem_ctrls.avgPriority_.cpu_cluster.cpus.data::samples     17039.00                       # Average QoS priority value for accepted requests
system.mem_ctrls.priorityMinLatency      0.000000020000                       # per QoS priority minimum request to response latency (s)
system.mem_ctrls.priorityMaxLatency      0.000463161876                       # per QoS priority maximum request to response latency (s)
system.mem_ctrls.numReadWriteTurnArounds          572                       # Number of turnarounds from READ to WRITE
system.mem_ctrls.numWriteReadTurnArounds          572                       # Number of turnarounds from WRITE to READ
system.mem_ctrls.numStayReadState              229623                       # Number of times bus staying in READ state
system.mem_ctrls.numStayWriteState               9039                       # Number of times bus staying in WRITE state
system.mem_ctrls.readReqs                       74560                       # Number of read requests accepted
system.mem_ctrls.writeReqs                       5046                       # Number of write requests accepted
system.mem_ctrls.readBursts                    149120                       # Number of DRAM read bursts, including those serviced by the write queue
system.mem_ctrls.writeBursts                    10092                       # Number of DRAM write bursts, including those merged in the write queue
system.mem_ctrls.servicedByWrQ                    841                       # Number of DRAM read bursts serviced by the write queue
system.mem_ctrls.mergedWrBursts                   467                       # Number of DRAM write bursts merged with an existing one
system.mem_ctrls.neitherReadNorWriteReqs            0                       # Number of requests that are neither read nor write
system.mem_ctrls.perBankRdBursts::0             16374                       # Per bank write bursts
system.mem_ctrls.perBankRdBursts::1             15698                       # Per bank write bursts
system.mem_ctrls.perBankRdBursts::2             29422                       # Per bank write bursts
system.mem_ctrls.perBankRdBursts::3             18878                       # Per bank write bursts
system.mem_ctrls.perBankRdBursts::4              5642                       # Per bank write bursts
system.mem_ctrls.perBankRdBursts::5              7412                       # Per bank write bursts
system.mem_ctrls.perBankRdBursts::6             31887                       # Per bank write bursts
system.mem_ctrls.perBankRdBursts::7             22966                       # Per bank write bursts
system.mem_ctrls.perBankWrBursts::0              1259                       # Per bank write bursts
system.mem_ctrls.perBankWrBursts::1              1124                       # Per bank write bursts
system.mem_ctrls.perBankWrBursts::2              1213                       # Per bank write bursts
system.mem_ctrls.perBankWrBursts::3              1249                       # Per bank write bursts
system.mem_ctrls.perBankWrBursts::4              1262                       # Per bank write bursts
system.mem_ctrls.perBankWrBursts::5              1140                       # Per bank write bursts
system.mem_ctrls.perBankWrBursts::6              1012                       # Per bank write bursts
system.mem_ctrls.perBankWrBursts::7              1338                       # Per bank write bursts
system.mem_ctrls.avgRdQLen                       2.05                       # Average read queue length when enqueuing
system.mem_ctrls.avgWrQLen                      25.76                       # Average write queue length when enqueuing
system.mem_ctrls.totQLat                   2311673588                       # Total ticks spent queuing
system.mem_ctrls.totBusLat                  741395000                       # Total ticks spent in databus transfers
system.mem_ctrls.totMemAccLat              5277253588                       # Total ticks spent from burst creation until serviced by the DRAM
system.mem_ctrls.avgQLat                     15590.03                       # Average queueing delay per DRAM burst
system.mem_ctrls.avgBusLat                    5000.00                       # Average bus latency per DRAM burst
system.mem_ctrls.avgMemAccLat                35590.03                       # Average memory access latency per DRAM burst
system.mem_ctrls.numRdRetry                         0                       # Number of times read queue was full causing retry
system.mem_ctrls.numWrRetry                         0                       # Number of times write queue was full causing retry
system.mem_ctrls.readRowHits                   120989                       # Number of row buffer hits during reads
system.mem_ctrls.writeRowHits                    7659                       # Number of row buffer hits during writes
system.mem_ctrls.readRowHitRate                 81.60                       # Row buffer hit rate for reads
system.mem_ctrls.writeRowHitRate                79.57                       # Row buffer hit rate for writes
system.mem_ctrls.readPktSize::0                     0                       # Read request sizes (log2)
system.mem_ctrls.readPktSize::1                     0                       # Read request sizes (log2)
system.mem_ctrls.readPktSize::2                     0                       # Read request sizes (log2)
system.mem_ctrls.readPktSize::3                     0                       # Read request sizes (log2)
system.mem_ctrls.readPktSize::4                     0                       # Read request sizes (log2)
system.mem_ctrls.readPktSize::5                149120                       # Read request sizes (log2)
system.mem_ctrls.writePktSize::0                    0                       # Write request sizes (log2)
system.mem_ctrls.writePktSize::1                    0                       # Write request sizes (log2)
system.mem_ctrls.writePktSize::2                    0                       # Write request sizes (log2)
system.mem_ctrls.writePktSize::3                    0                       # Write request sizes (log2)
system.mem_ctrls.writePktSize::4                    0                       # Write request sizes (log2)
system.mem_ctrls.writePktSize::5                10092                       # Write request sizes (log2)
system.mem_ctrls.rdQLenPdf::0                   71998                       # What read queue length does an incoming req see
system.mem_ctrls.rdQLenPdf::1                   72428                       # What read queue length does an incoming req see
system.mem_ctrls.rdQLenPdf::2                    2119                       # What read queue length does an incoming req see
system.mem_ctrls.rdQLenPdf::3                    1688                       # What read queue length does an incoming req see
system.mem_ctrls.rdQLenPdf::4                      24                       # What read queue length does an incoming req see
[...]
system.mem_ctrls.wrQLenPdf::2                       1                       # What write queue length does an incoming req see
system.mem_ctrls.wrQLenPdf::3                       1                       # What write queue length does an incoming req see
system.mem_ctrls.wrQLenPdf::4                       1                       # What write queue length does an incoming req see
system.mem_ctrls.wrQLenPdf::5                       1                       # What write queue length does an incoming req see
system.mem_ctrls.wrQLenPdf::6                       1                       # What write queue length does an incoming req see
system.mem_ctrls.wrQLenPdf::7                       1                       # What write queue length does an incoming req see
system.mem_ctrls.wrQLenPdf::8                       1                       # What write queue length does an incoming req see
system.mem_ctrls.wrQLenPdf::9                       1                       # What write queue length does an incoming req see
system.mem_ctrls.wrQLenPdf::10                      1                       # What write queue length does an incoming req see
system.mem_ctrls.wrQLenPdf::11                      1                       # What write queue length does an incoming req see
system.mem_ctrls.wrQLenPdf::12                      1                       # What write queue length does an incoming req see
system.mem_ctrls.wrQLenPdf::13                      1                       # What write queue length does an incoming req see
system.mem_ctrls.wrQLenPdf::14                      1                       # What write queue length does an incoming req see
system.mem_ctrls.wrQLenPdf::15                    160                       # What write queue length does an incoming req see
system.mem_ctrls.wrQLenPdf::16                    183                       # What write queue length does an incoming req see
system.mem_ctrls.wrQLenPdf::17                    461                       # What write queue length does an incoming req see
system.mem_ctrls.wrQLenPdf::18                    559                       # What write queue length does an incoming req see
system.mem_ctrls.wrQLenPdf::19                    575                       # What write queue length does an incoming req see
system.mem_ctrls.wrQLenPdf::20                    578                       # What write queue length does an incoming req see
system.mem_ctrls.wrQLenPdf::21                    580                       # What write queue length does an incoming req see
system.mem_ctrls.wrQLenPdf::22                    580                       # What write queue length does an incoming req see
system.mem_ctrls.wrQLenPdf::23                    579                       # What write queue length does an incoming req see
system.mem_ctrls.wrQLenPdf::24                    587                       # What write queue length does an incoming req see
system.mem_ctrls.wrQLenPdf::25                    594                       # What write queue length does an incoming req see
system.mem_ctrls.wrQLenPdf::26                    588                       # What write queue length does an incoming req see
system.mem_ctrls.wrQLenPdf::27                    584                       # What write queue length does an incoming req see
system.mem_ctrls.wrQLenPdf::28                    583                       # What write queue length does an incoming req see
system.mem_ctrls.wrQLenPdf::29                    576                       # What write queue length does an incoming req see
system.mem_ctrls.wrQLenPdf::30                    573                       # What write queue length does an incoming req see
system.mem_ctrls.wrQLenPdf::31                    572                       # What write queue length does an incoming req see
system.mem_ctrls.wrQLenPdf::32                    572                       # What write queue length does an incoming req see
system.mem_ctrls.wrQLenPdf::33                    126                       # What write queue length does an incoming req see
system.mem_ctrls.wrQLenPdf::34                      0                       # What write queue length does an incoming req see
system.mem_ctrls.wrQLenPdf::35                      0                       # What write queue length does an incoming req see
system.mem_ctrls.wrQLenPdf::36                      0                       # What write queue length does an incoming req see
system.mem_ctrls.wrQLenPdf::37                      0                       # What write queue length does an incoming req see
system.mem_ctrls.wrQLenPdf::38                      0                       # What write queue length does an incoming req see
system.mem_ctrls.wrQLenPdf::39                      0                       # What write queue length does an incoming req see
system.mem_ctrls.wrQLenPdf::40                      0                       # What write queue length does an incoming req see
system.mem_ctrls.wrQLenPdf::41                      0                       # What write queue length does an incoming req see
system.mem_ctrls.wrQLenPdf::42                      0                       # What write queue length does an incoming req see
system.mem_ctrls.wrQLenPdf::43                      0                       # What write queue length does an incoming req see
system.mem_ctrls.wrQLenPdf::44                      0                       # What write queue length does an incoming req see
system.mem_ctrls.wrQLenPdf::45                      0                       # What write queue length does an incoming req see
system.mem_ctrls.wrQLenPdf::46                      0                       # What write queue length does an incoming req see
system.mem_ctrls.wrQLenPdf::47                      0                       # What write queue length does an incoming req see
system.mem_ctrls.wrQLenPdf::48                      0                       # What write queue length does an incoming req see
system.mem_ctrls.wrQLenPdf::49                      0                       # What write queue length does an incoming req see
system.mem_ctrls.wrQLenPdf::50                      0                       # What write queue length does an incoming req see
system.mem_ctrls.wrQLenPdf::51                      0                       # What write queue length does an incoming req see
system.mem_ctrls.wrQLenPdf::52                      0                       # What write queue length does an incoming req see
system.mem_ctrls.wrQLenPdf::53                      0                       # What write queue length does an incoming req see
system.mem_ctrls.wrQLenPdf::54                      0                       # What write queue length does an incoming req see
system.mem_ctrls.wrQLenPdf::55                      0                       # What write queue length does an incoming req see
system.mem_ctrls.wrQLenPdf::56                      0                       # What write queue length does an incoming req see
system.mem_ctrls.wrQLenPdf::57                      0                       # What write queue length does an incoming req see
system.mem_ctrls.wrQLenPdf::58                      0                       # What write queue length does an incoming req see
system.mem_ctrls.wrQLenPdf::59                      0                       # What write queue length does an incoming req see
system.mem_ctrls.wrQLenPdf::60                      0                       # What write queue length does an incoming req see
system.mem_ctrls.wrQLenPdf::61                      0                       # What write queue length does an incoming req see
system.mem_ctrls.wrQLenPdf::62                      0                       # What write queue length does an incoming req see
system.mem_ctrls.wrQLenPdf::63                      0                       # What write queue length does an incoming req see
system.mem_ctrls.bytesPerActivate::samples        29224                       # Bytes accessed per row activation
system.mem_ctrls.bytesPerActivate::mean    172.850808                       # Bytes accessed per row activation
system.mem_ctrls.bytesPerActivate::gmean   137.387180                       # Bytes accessed per row activation
system.mem_ctrls.bytesPerActivate::stdev   121.404589                       # Bytes accessed per row activation
system.mem_ctrls.bytesPerActivate::0-63           203      0.69%      0.69% # Bytes accessed per row activation
system.mem_ctrls.bytesPerActivate::64-127        10252     35.08%     35.78% # Bytes accessed per row activation
system.mem_ctrls.bytesPerActivate::128-191         5651     19.34%     55.11% # Bytes accessed per row activation
system.mem_ctrls.bytesPerActivate::192-255         6100     20.87%     75.99% # Bytes accessed per row activation
system.mem_ctrls.bytesPerActivate::256-319         1991      6.81%     82.80% # Bytes accessed per row activation
system.mem_ctrls.bytesPerActivate::320-383         2510      8.59%     91.39% # Bytes accessed per row activation
system.mem_ctrls.bytesPerActivate::384-447          665      2.28%     93.66% # Bytes accessed per row activation
system.mem_ctrls.bytesPerActivate::448-511          493      1.69%     95.35% # Bytes accessed per row activation
system.mem_ctrls.bytesPerActivate::512-575         1359      4.65%    100.00% # Bytes accessed per row activation
system.mem_ctrls.bytesPerActivate::total        29224                       # Bytes accessed per row activation
system.mem_ctrls.rdPerTurnAround::samples          572                       # Reads before turning the bus around for writes
system.mem_ctrls.rdPerTurnAround::mean     259.061189                       # Reads before turning the bus around for writes
system.mem_ctrls.rdPerTurnAround::gmean     65.403653                       # Reads before turning the bus around for writes
system.mem_ctrls.rdPerTurnAround::stdev    477.361581                       # Reads before turning the bus around for writes
system.mem_ctrls.rdPerTurnAround::0-127           434     75.87%     75.87% # Reads before turning the bus around for writes
system.mem_ctrls.rdPerTurnAround::128-255            5      0.87%     76.75% # Reads before turning the bus around for writes
system.mem_ctrls.rdPerTurnAround::256-383           19      3.32%     80.07% # Reads before turning the bus around for writes
system.mem_ctrls.rdPerTurnAround::384-511            7      1.22%     81.29% # Reads before turning the bus around for writes
system.mem_ctrls.rdPerTurnAround::512-639           12      2.10%     83.39% # Reads before turning the bus around for writes
system.mem_ctrls.rdPerTurnAround::640-767           13      2.27%     85.66% # Reads before turning the bus around for writes
system.mem_ctrls.rdPerTurnAround::768-895           15      2.62%     88.29% # Reads before turning the bus around for writes
system.mem_ctrls.rdPerTurnAround::896-1023            4      0.70%     88.99% # Reads before turning the bus around for writes
system.mem_ctrls.rdPerTurnAround::1024-1151           12      2.10%     91.08% # Reads before turning the bus around for writes
system.mem_ctrls.rdPerTurnAround::1152-1279            5      0.87%     91.96% # Reads before turning the bus around for writes
system.mem_ctrls.rdPerTurnAround::1280-1407           16      2.80%     94.76% # Reads before turning the bus around for writes
system.mem_ctrls.rdPerTurnAround::1408-1535           13      2.27%     97.03% # Reads before turning the bus around for writes
system.mem_ctrls.rdPerTurnAround::1536-1663            3      0.52%     97.55% # Reads before turning the bus around for writes
system.mem_ctrls.rdPerTurnAround::1664-1791            4      0.70%     98.25% # Reads before turning the bus around for writes
system.mem_ctrls.rdPerTurnAround::1792-1919            6      1.05%     99.30% # Reads before turning the bus around for writes
system.mem_ctrls.rdPerTurnAround::1920-2047            2      0.35%     99.65% # Reads before turning the bus around for writes
system.mem_ctrls.rdPerTurnAround::2432-2559            1      0.17%     99.83% # Reads before turning the bus around for writes
system.mem_ctrls.rdPerTurnAround::2560-2687            1      0.17%    100.00% # Reads before turning the bus around for writes
system.mem_ctrls.rdPerTurnAround::total           572                       # Reads before turning the bus around for writes
system.mem_ctrls.wrPerTurnAround::samples          572                       # Writes before turning the bus around for reads
system.mem_ctrls.wrPerTurnAround::mean      16.777972                       # Writes before turning the bus around for reads
system.mem_ctrls.wrPerTurnAround::gmean     16.735098                       # Writes before turning the bus around for reads
system.mem_ctrls.wrPerTurnAround::stdev      1.237761                       # Writes before turning the bus around for reads
system.mem_ctrls.wrPerTurnAround::16              387     67.66%     67.66% # Writes before turning the bus around for reads
system.mem_ctrls.wrPerTurnAround::17               15      2.62%     70.28% # Writes before turning the bus around for reads
system.mem_ctrls.wrPerTurnAround::18              115     20.10%     90.38% # Writes before turning the bus around for reads
system.mem_ctrls.wrPerTurnAround::19               23      4.02%     94.41% # Writes before turning the bus around for reads
system.mem_ctrls.wrPerTurnAround::20               29      5.07%     99.48% # Writes before turning the bus around for reads
system.mem_ctrls.wrPerTurnAround::21                3      0.52%    100.00% # Writes before turning the bus around for reads
system.mem_ctrls.wrPerTurnAround::total           572                       # Writes before turning the bus around for reads
system.mem_ctrls.bytesReadDRAM                4744928                       # Total number of bytes read from DRAM
system.mem_ctrls.bytesReadWrQ                   26912                       # Total number of bytes read from write queue
system.mem_ctrls.bytesWritten                  307104                       # Total number of bytes written to DRAM
system.mem_ctrls.bytesReadSys                 4771840                       # Total read bytes from the system interface side
system.mem_ctrls.bytesWrittenSys               322944                       # Total written bytes from the system interface side
system.mem_ctrls.avgRdBW                       426.87                       # Average DRAM read bandwidth in MiByte/s
system.mem_ctrls.avgWrBW                        27.63                       # Average achieved write bandwidth in MiByte/s
system.mem_ctrls.avgRdBWSys                    429.29                       # Average system read bandwidth in MiByte/s
system.mem_ctrls.avgWrBWSys                     29.05                       # Average system write bandwidth in MiByte/s
system.mem_ctrls.peakBW                       6400.00                       # Theoretical peak bandwidth in MiByte/s
system.mem_ctrls.busUtil                         7.10                       # Data bus utilization in percentage
system.mem_ctrls.busUtilRead                     6.67                       # Data bus utilization in percentage for reads
system.mem_ctrls.busUtilWrite                    0.43                       # Data bus utilization in percentage for writes
system.mem_ctrls.totGap                   11115546288                       # Total gap between requests
system.mem_ctrls.avgGap                     139632.02                       # Average gap between requests
system.mem_ctrls.masterReadBytes::.cpu_cluster.cpus.inst      4199680                       # Per-master bytes read from memory
system.mem_ctrls.masterReadBytes::.cpu_cluster.cpus.data       545248                       # Per-master bytes read from memory
system.mem_ctrls.masterWriteBytes::.writebacks       307104                       # Per-master bytes write to memory
system.mem_ctrls.masterReadRate::.cpu_cluster.cpus.inst 377820302.035979032516                       # Per-master bytes read from memory rate (Bytes/sec)
system.mem_ctrls.masterReadRate::.cpu_cluster.cpus.data 49052728.789934828877                       # Per-master bytes read from memory rate (Bytes/sec)
system.mem_ctrls.masterWriteRate::.writebacks 27628325.500146988779                       # Per-master bytes write to memory rate (Bytes/sec)
system.mem_ctrls.masterReadAccesses::.cpu_cluster.cpus.inst       131240                       # Per-master read serviced memory accesses
system.mem_ctrls.masterReadAccesses::.cpu_cluster.cpus.data        17880                       # Per-master read serviced memory accesses
system.mem_ctrls.masterWriteAccesses::.writebacks        10092                       # Per-master write serviced memory accesses
system.mem_ctrls.masterReadTotalLat::.cpu_cluster.cpus.inst   4579129636                       # Per-master read total memory access latency
system.mem_ctrls.masterReadTotalLat::.cpu_cluster.cpus.data    698123952                       # Per-master read total memory access latency
system.mem_ctrls.masterWriteTotalLat::.writebacks 264689657814                       # Per-master write total memory access latency
system.mem_ctrls.masterReadAvgLat::.cpu_cluster.cpus.inst     34891.27                       # Per-master read average memory access latency
system.mem_ctrls.masterReadAvgLat::.cpu_cluster.cpus.data     39044.96                       # Per-master read average memory access latency
system.mem_ctrls.masterWriteAvgLat::.writebacks  26227671.21                       # Per-master write average memory access latency
system.mem_ctrls.pageHitRate                    81.47                       # Row buffer hit rate, read and write combined
system.mem_ctrls.rank0.actEnergy             52171980                       # Energy for activate commands per rank (pJ)
system.mem_ctrls.rank0.preEnergy         27493939.200000                       # Energy for precharge commands per rank (pJ)
system.mem_ctrls.rank0.readEnergy           174374928                       # Energy for read commands per rank (pJ)
system.mem_ctrls.rank0.writeEnergy            8982792                       # Energy for write commands per rank (pJ)
system.mem_ctrls.rank0.refreshEnergy         69227340                       # Energy for refresh commands per rank (pJ)
system.mem_ctrls.rank0.actBackEnergy        395242695                       # Energy for active background per rank (pJ)
system.mem_ctrls.rank0.preBackEnergy     72254760.000000                       # Energy for precharge background per rank (pJ)
system.mem_ctrls.rank0.actPowerDownEnergy            0                       # Energy for active power-down per rank (pJ)
system.mem_ctrls.rank0.prePowerDownEnergy            0                       # Energy for precharge power-down per rank (pJ)
system.mem_ctrls.rank0.selfRefreshEnergy            0                       # Energy for self refresh per rank (pJ)
system.mem_ctrls.rank0.totalEnergy       799748434.200003                       # Total energy per rank (pJ)
system.mem_ctrls.rank0.averagePower         71.948623                       # Core power per rank (mW)
system.mem_ctrls.rank0.totalIdleTime                0                       # Total Idle time Per DRAM Rank
system.mem_ctrls.rank0.memoryStateTime::IDLE   2099288446                       # Time in different power states
system.mem_ctrls.rank0.memoryStateTime::REF    372190000                       # Time in different power states
system.mem_ctrls.rank0.memoryStateTime::SREF            0                       # Time in different power states
system.mem_ctrls.rank0.memoryStateTime::PRE_PDN            0                       # Time in different power states
system.mem_ctrls.rank0.memoryStateTime::ACT   8644070341                       # Time in different power states
system.mem_ctrls.rank0.memoryStateTime::ACT_PDN            0                       # Time in different power states

---------- End Simulation Statistics   ----------
