
---------- Begin Simulation Statistics ----------
final_tick                               145815101250                       # Number of ticks from beginning of simulation (restored from checkpoints and never reset)
host_inst_rate                                   1342                       # Simulator instruction rate (inst/s)
host_mem_usage                               22434472                       # Number of bytes of host memory used
host_op_rate                                     1375                       # Simulator op (including micro ops) rate (op/s)
host_seconds                                 99856.05                       # Real time elapsed on the host
host_tick_rate                                 409406                       # Simulator tick rate (ticks/s)
sim_freq                                 1000000000000                       # Frequency of simulated ticks
sim_insts                                   133961863                       # Number of instructions simulated
sim_ops                                     137265315                       # Number of ops (including micro ops) simulated
sim_seconds                                  0.040882                       # Number of seconds simulated
sim_ticks                                 40881631250                       # Number of ticks simulated
system.acctest.coherency_bus.snoop_filter.hit_multi_requests            0                       # Number of requests hitting in the snoop filter with multiple (>1) holders of the requested data.
system.acctest.coherency_bus.snoop_filter.hit_multi_snoops            0                       # Number of snoops hitting in the snoop filter with multiple (>1) holders of the requested data.
system.acctest.coherency_bus.snoop_filter.hit_single_requests            0                       # Number of requests hitting in the snoop filter with a single holder of the requested data.
system.acctest.coherency_bus.snoop_filter.hit_single_snoops            0                       # Number of snoops hitting in the snoop filter with a single holder of the requested data.
system.acctest.coherency_bus.snoop_filter.tot_requests            0                       # Total number of requests made to the snoop filter.
system.acctest.coherency_bus.snoop_filter.tot_snoops            0                       # Total number of snoops made to the snoop filter.
system.cf0.dma_read_bytes                           0                       # Number of bytes transfered via DMA reads (not PRD).
system.cf0.dma_read_full_pages                      0                       # Number of full page size DMA reads (not PRD).
system.cf0.dma_read_txs                             0                       # Number of DMA read transactions (not PRD).
system.cf0.dma_write_bytes                          0                       # Number of bytes transfered via DMA writes.
system.cf0.dma_write_full_pages                     0                       # Number of full page size DMA writes.
system.cf0.dma_write_txs                            0                       # Number of DMA write transactions.
system.cpu.branchPred.BTBCorrect                    0                       # Number of correct BTB predictions (this stat may not work properly.
system.cpu.branchPred.BTBHitPct             76.566684                       # BTB Hit Percentage
system.cpu.branchPred.BTBHits                  282760                       # Number of BTB hits
system.cpu.branchPred.BTBLookups               369299                       # Number of BTB lookups
system.cpu.branchPred.RASInCorrect               3738                       # Number of incorrect RAS predictions.
system.cpu.branchPred.condIncorrect             28338                       # Number of conditional branches incorrect
system.cpu.branchPred.condPredicted            390325                       # Number of conditional branches predicted
system.cpu.branchPred.indirectHits              42067                       # Number of indirect target hits.
system.cpu.branchPred.indirectLookups           50270                       # Number of indirect predictor lookups.
system.cpu.branchPred.indirectMisses             8203                       # Number of indirect misses.
system.cpu.branchPred.lookups                  667213                       # Number of BP lookups
system.cpu.branchPred.usedRAS                  109719                       # Number of times the RAS was used to get a target.
system.cpu.branchPredindirectMispredicted         7922                       # Number of mispredicted indirect branches.
system.cpu.committedInsts                     4361747                       # Number of instructions committed
system.cpu.committedOps                       4688893                       # Number of ops (including micro ops) committed
system.cpu.cpi                               2.580280                       # CPI: cycles per instruction
system.cpu.discardedOps                         80805                       # Number of ops (including micro ops) which were discarded before commit
system.cpu.dtb.accesses                             0                       # DTB accesses
system.cpu.dtb.align_faults                         0                       # Number of TLB faults due to alignment restrictions
system.cpu.dtb.domain_faults                        0                       # Number of TLB faults due to domain restrictions
system.cpu.dtb.flush_entries                        0                       # Number of entries that have been flushed from TLB
system.cpu.dtb.flush_tlb                            0                       # Number of times complete TLB was flushed
system.cpu.dtb.flush_tlb_asid                       0                       # Number of times TLB was flushed by ASID
system.cpu.dtb.flush_tlb_mva                        0                       # Number of times TLB was flushed by MVA
system.cpu.dtb.flush_tlb_mva_asid                   0                       # Number of times TLB was flushed by MVA & ASID
system.cpu.dtb.hits                                 0                       # DTB hits
system.cpu.dtb.inst_accesses                        0                       # ITB inst accesses
system.cpu.dtb.inst_hits                            0                       # ITB inst hits
system.cpu.dtb.inst_misses                          0                       # ITB inst misses
system.cpu.dtb.misses                               0                       # DTB misses
system.cpu.dtb.perms_faults                         0                       # Number of TLB faults due to permissions restrictions
system.cpu.dtb.prefetch_faults                      0                       # Number of TLB faults due to prefetch
system.cpu.dtb.read_accesses                        0                       # DTB read accesses
system.cpu.dtb.read_hits                            0                       # DTB read hits
system.cpu.dtb.read_misses                          0                       # DTB read misses
system.cpu.dtb.stage2_mmu.stage2_tlb.accesses            0                       # DTB accesses
system.cpu.dtb.stage2_mmu.stage2_tlb.align_faults            0                       # Number of TLB faults due to alignment restrictions
system.cpu.dtb.stage2_mmu.stage2_tlb.domain_faults            0                       # Number of TLB faults due to domain restrictions
system.cpu.dtb.stage2_mmu.stage2_tlb.flush_entries            0                       # Number of entries that have been flushed from TLB
system.cpu.dtb.stage2_mmu.stage2_tlb.flush_tlb            0                       # Number of times complete TLB was flushed
system.cpu.dtb.stage2_mmu.stage2_tlb.flush_tlb_asid            0                       # Number of times TLB was flushed by ASID
system.cpu.dtb.stage2_mmu.stage2_tlb.flush_tlb_mva            0                       # Number of times TLB was flushed by MVA
system.cpu.dtb.stage2_mmu.stage2_tlb.flush_tlb_mva_asid            0                       # Number of times TLB was flushed by MVA & ASID
system.cpu.dtb.stage2_mmu.stage2_tlb.hits            0                       # DTB hits
system.cpu.dtb.stage2_mmu.stage2_tlb.inst_accesses            0                       # ITB inst accesses
system.cpu.dtb.stage2_mmu.stage2_tlb.inst_hits            0                       # ITB inst hits
system.cpu.dtb.stage2_mmu.stage2_tlb.inst_misses            0                       # ITB inst misses
system.cpu.dtb.stage2_mmu.stage2_tlb.misses            0                       # DTB misses
system.cpu.dtb.stage2_mmu.stage2_tlb.perms_faults            0                       # Number of TLB faults due to permissions restrictions
system.cpu.dtb.stage2_mmu.stage2_tlb.prefetch_faults            0                       # Number of TLB faults due to prefetch
system.cpu.dtb.stage2_mmu.stage2_tlb.read_accesses            0                       # DTB read accesses
system.cpu.dtb.stage2_mmu.stage2_tlb.read_hits            0                       # DTB read hits
system.cpu.dtb.stage2_mmu.stage2_tlb.read_misses            0                       # DTB read misses
system.cpu.dtb.stage2_mmu.stage2_tlb.walker.walkRequestOrigin_Requested::Data            0                       # Table walker requests started/completed, data/inst
system.cpu.dtb.stage2_mmu.stage2_tlb.walker.walkRequestOrigin_Requested::Inst            0                       # Table walker requests started/completed, data/inst
system.cpu.dtb.stage2_mmu.stage2_tlb.walker.walkRequestOrigin_Requested::total            0                       # Table walker requests started/completed, data/inst
system.cpu.dtb.stage2_mmu.stage2_tlb.walker.walkRequestOrigin_Completed::Data            0                       # Table walker requests started/completed, data/inst
system.cpu.dtb.stage2_mmu.stage2_tlb.walker.walkRequestOrigin_Completed::Inst            0                       # Table walker requests started/completed, data/inst
system.cpu.dtb.stage2_mmu.stage2_tlb.walker.walkRequestOrigin_Completed::total            0                       # Table walker requests started/completed, data/inst
system.cpu.dtb.stage2_mmu.stage2_tlb.walker.walkRequestOrigin::total            0                       # Table walker requests started/completed, data/inst
system.cpu.dtb.stage2_mmu.stage2_tlb.walker.walks            0                       # Table walker walks requested
system.cpu.dtb.stage2_mmu.stage2_tlb.write_accesses            0                       # DTB write accesses
system.cpu.dtb.stage2_mmu.stage2_tlb.write_hits            0                       # DTB write hits
system.cpu.dtb.stage2_mmu.stage2_tlb.write_misses            0                       # DTB write misses
system.cpu.dtb.walker.walkRequestOrigin_Requested::Data            0                       # Table walker requests started/completed, data/inst
system.cpu.dtb.walker.walkRequestOrigin_Requested::Inst            0                       # Table walker requests started/completed, data/inst
system.cpu.dtb.walker.walkRequestOrigin_Requested::total            0                       # Table walker requests started/completed, data/inst
system.cpu.dtb.walker.walkRequestOrigin_Completed::Data            0                       # Table walker requests started/completed, data/inst
system.cpu.dtb.walker.walkRequestOrigin_Completed::Inst            0                       # Table walker requests started/completed, data/inst
system.cpu.dtb.walker.walkRequestOrigin_Completed::total            0                       # Table walker requests started/completed, data/inst
system.cpu.dtb.walker.walkRequestOrigin::total            0                       # Table walker requests started/completed, data/inst
system.cpu.dtb.walker.walks                         0                       # Table walker walks requested
system.cpu.dtb.write_accesses                       0                       # DTB write accesses
system.cpu.dtb.write_hits                           0                       # DTB write hits
system.cpu.dtb.write_misses                         0                       # DTB write misses
system.cpu.fetch2.amo_instructions                  0                       # Number of memory atomic instructions successfully decoded
system.cpu.fetch2.fp_instructions                   0                       # Number of floating point instructions successfully decoded
system.cpu.fetch2.int_instructions            3187812                       # Number of integer instructions successfully decoded
system.cpu.fetch2.load_instructions            629883                       # Number of memory load instructions successfully decoded
system.cpu.fetch2.store_instructions           288591                       # Number of memory store instructions successfully decoded
system.cpu.fetch2.vec_instructions                  0                       # Number of SIMD instructions successfully decoded
system.cpu.idleCycles                         6136741                       # Total number of cycles that the object has spent stopped
system.cpu.ipc                               0.387555                       # IPC: instructions per cycle
system.cpu.itb.accesses                             0                       # DTB accesses
system.cpu.itb.align_faults                         0                       # Number of TLB faults due to alignment restrictions
system.cpu.itb.domain_faults                        0                       # Number of TLB faults due to domain restrictions
system.cpu.itb.flush_entries                        0                       # Number of entries that have been flushed from TLB
system.cpu.itb.flush_tlb                            0                       # Number of times complete TLB was flushed
system.cpu.itb.flush_tlb_asid                       0                       # Number of times TLB was flushed by ASID
system.cpu.itb.flush_tlb_mva                        0                       # Number of times TLB was flushed by MVA
system.cpu.itb.flush_tlb_mva_asid                   0                       # Number of times TLB was flushed by MVA & ASID
system.cpu.itb.hits                                 0                       # DTB hits
system.cpu.itb.inst_accesses                        0                       # ITB inst accesses
system.cpu.itb.inst_hits                            0                       # ITB inst hits
system.cpu.itb.inst_misses                          0                       # ITB inst misses
system.cpu.itb.misses                               0                       # DTB misses
system.cpu.itb.perms_faults                         0                       # Number of TLB faults due to permissions restrictions
system.cpu.itb.prefetch_faults                      0                       # Number of TLB faults due to prefetch
system.cpu.itb.read_accesses                        0                       # DTB read accesses
system.cpu.itb.read_hits                            0                       # DTB read hits
system.cpu.itb.read_misses                          0                       # DTB read misses
system.cpu.itb.stage2_mmu.stage2_tlb.accesses            0                       # DTB accesses
system.cpu.itb.stage2_mmu.stage2_tlb.align_faults            0                       # Number of TLB faults due to alignment restrictions
system.cpu.itb.stage2_mmu.stage2_tlb.domain_faults            0                       # Number of TLB faults due to domain restrictions
system.cpu.itb.stage2_mmu.stage2_tlb.flush_entries            0                       # Number of entries that have been flushed from TLB
system.cpu.itb.stage2_mmu.stage2_tlb.flush_tlb            0                       # Number of times complete TLB was flushed
system.cpu.itb.stage2_mmu.stage2_tlb.flush_tlb_asid            0                       # Number of times TLB was flushed by ASID
system.cpu.itb.stage2_mmu.stage2_tlb.flush_tlb_mva            0                       # Number of times TLB was flushed by MVA
system.cpu.itb.stage2_mmu.stage2_tlb.flush_tlb_mva_asid            0                       # Number of times TLB was flushed by MVA & ASID
system.cpu.itb.stage2_mmu.stage2_tlb.hits            0                       # DTB hits
system.cpu.itb.stage2_mmu.stage2_tlb.inst_accesses            0                       # ITB inst accesses
system.cpu.itb.stage2_mmu.stage2_tlb.inst_hits            0                       # ITB inst hits
system.cpu.itb.stage2_mmu.stage2_tlb.inst_misses            0                       # ITB inst misses
system.cpu.itb.stage2_mmu.stage2_tlb.misses            0                       # DTB misses
system.cpu.itb.stage2_mmu.stage2_tlb.perms_faults            0                       # Number of TLB faults due to permissions restrictions
system.cpu.itb.stage2_mmu.stage2_tlb.prefetch_faults            0                       # Number of TLB faults due to prefetch
system.cpu.itb.stage2_mmu.stage2_tlb.read_accesses            0                       # DTB read accesses
system.cpu.itb.stage2_mmu.stage2_tlb.read_hits            0                       # DTB read hits
system.cpu.itb.stage2_mmu.stage2_tlb.read_misses            0                       # DTB read misses
system.cpu.itb.stage2_mmu.stage2_tlb.walker.walkRequestOrigin_Requested::Data            0                       # Table walker requests started/completed, data/inst
system.cpu.itb.stage2_mmu.stage2_tlb.walker.walkRequestOrigin_Requested::Inst            0                       # Table walker requests started/completed, data/inst
system.cpu.itb.stage2_mmu.stage2_tlb.walker.walkRequestOrigin_Requested::total            0                       # Table walker requests started/completed, data/inst
system.cpu.itb.stage2_mmu.stage2_tlb.walker.walkRequestOrigin_Completed::Data            0                       # Table walker requests started/completed, data/inst
system.cpu.itb.stage2_mmu.stage2_tlb.walker.walkRequestOrigin_Completed::Inst            0                       # Table walker requests started/completed, data/inst
system.cpu.itb.stage2_mmu.stage2_tlb.walker.walkRequestOrigin_Completed::total            0                       # Table walker requests started/completed, data/inst
system.cpu.itb.stage2_mmu.stage2_tlb.walker.walkRequestOrigin::total            0                       # Table walker requests started/completed, data/inst
system.cpu.itb.stage2_mmu.stage2_tlb.walker.walks            0                       # Table walker walks requested
system.cpu.itb.stage2_mmu.stage2_tlb.write_accesses            0                       # DTB write accesses
system.cpu.itb.stage2_mmu.stage2_tlb.write_hits            0                       # DTB write hits
system.cpu.itb.stage2_mmu.stage2_tlb.write_misses            0                       # DTB write misses
system.cpu.itb.walker.walkRequestOrigin_Requested::Data            0                       # Table walker requests started/completed, data/inst
system.cpu.itb.walker.walkRequestOrigin_Requested::Inst            0                       # Table walker requests started/completed, data/inst
system.cpu.itb.walker.walkRequestOrigin_Requested::total            0                       # Table walker requests started/completed, data/inst
system.cpu.itb.walker.walkRequestOrigin_Completed::Data            0                       # Table walker requests started/completed, data/inst
system.cpu.itb.walker.walkRequestOrigin_Completed::Inst            0                       # Table walker requests started/completed, data/inst
system.cpu.itb.walker.walkRequestOrigin_Completed::total            0                       # Table walker requests started/completed, data/inst
system.cpu.itb.walker.walkRequestOrigin::total            0                       # Table walker requests started/completed, data/inst
system.cpu.itb.walker.walks                         0                       # Table walker walks requested
system.cpu.itb.write_accesses                       0                       # DTB write accesses
system.cpu.itb.write_hits                           0                       # DTB write hits
system.cpu.itb.write_misses                         0                       # DTB write misses
system.cpu.kern.inst.arm                            0                       # number of arm instructions executed
system.cpu.kern.inst.quiesce                     3593                       # number of quiesce instructions executed
system.cpu.numCycles                         11254528                       # number of cpu cycles simulated
system.cpu.numFetchSuspends                      3593                       # Number of times Execute suspended instruction fetching
system.cpu.numWorkItemsCompleted                    0                       # number of work items this cpu completed
system.cpu.numWorkItemsStarted                      0                       # number of work items this cpu started
system.cpu.op_class_0::No_OpClass                   0      0.00%      0.00% # Class of committed instruction
system.cpu.op_class_0::IntAlu                 3511077     74.88%     74.88% # Class of committed instruction
system.cpu.op_class_0::IntMult                   8640      0.18%     75.06% # Class of committed instruction
system.cpu.op_class_0::IntDiv                       0      0.00%     75.06% # Class of committed instruction
system.cpu.op_class_0::FloatAdd                     0      0.00%     75.06% # Class of committed instruction
system.cpu.op_class_0::FloatCmp                     0      0.00%     75.06% # Class of committed instruction
system.cpu.op_class_0::FloatCvt                     0      0.00%     75.06% # Class of committed instruction
system.cpu.op_class_0::FloatMult                    0      0.00%     75.06% # Class of committed instruction
system.cpu.op_class_0::FloatMultAcc                 0      0.00%     75.06% # Class of committed instruction
system.cpu.op_class_0::FloatDiv                     0      0.00%     75.06% # Class of committed instruction
system.cpu.op_class_0::FloatMisc                    0      0.00%     75.06% # Class of committed instruction
system.cpu.op_class_0::FloatSqrt                    0      0.00%     75.06% # Class of committed instruction
system.cpu.op_class_0::SimdAdd                      0      0.00%     75.06% # Class of committed instruction
system.cpu.op_class_0::SimdAddAcc                   0      0.00%     75.06% # Class of committed instruction
system.cpu.op_class_0::SimdAlu                      0      0.00%     75.06% # Class of committed instruction
system.cpu.op_class_0::SimdCmp                      0      0.00%     75.06% # Class of committed instruction
system.cpu.op_class_0::SimdCvt                      0      0.00%     75.06% # Class of committed instruction
system.cpu.op_class_0::SimdMisc                     0      0.00%     75.06% # Class of committed instruction
system.cpu.op_class_0::SimdMult                     0      0.00%     75.06% # Class of committed instruction
system.cpu.op_class_0::SimdMultAcc                  0      0.00%     75.06% # Class of committed instruction
system.cpu.op_class_0::SimdShift                    0      0.00%     75.06% # Class of committed instruction
system.cpu.op_class_0::SimdShiftAcc                 0      0.00%     75.06% # Class of committed instruction
system.cpu.op_class_0::SimdDiv                      0      0.00%     75.06% # Class of committed instruction
system.cpu.op_class_0::SimdSqrt                     0      0.00%     75.06% # Class of committed instruction
system.cpu.op_class_0::SimdFloatAdd                 0      0.00%     75.06% # Class of committed instruction
system.cpu.op_class_0::SimdFloatAlu                 0      0.00%     75.06% # Class of committed instruction
system.cpu.op_class_0::SimdFloatCmp                 0      0.00%     75.06% # Class of committed instruction
system.cpu.op_class_0::SimdFloatCvt                 0      0.00%     75.06% # Class of committed instruction
system.cpu.op_class_0::SimdFloatDiv                 0      0.00%     75.06% # Class of committed instruction
system.cpu.op_class_0::SimdFloatMisc                0      0.00%     75.06% # Class of committed instruction
system.cpu.op_class_0::SimdFloatMult                0      0.00%     75.06% # Class of committed instruction
system.cpu.op_class_0::SimdFloatMultAcc             0      0.00%     75.06% # Class of committed instruction
system.cpu.op_class_0::SimdFloatSqrt                0      0.00%     75.06% # Class of committed instruction
system.cpu.op_class_0::SimdReduceAdd                0      0.00%     75.06% # Class of committed instruction
system.cpu.op_class_0::SimdReduceAlu                0      0.00%     75.06% # Class of committed instruction
system.cpu.op_class_0::SimdReduceCmp                0      0.00%     75.06% # Class of committed instruction
system.cpu.op_class_0::SimdFloatReduceAdd            0      0.00%     75.06% # Class of committed instruction
system.cpu.op_class_0::SimdFloatReduceCmp            0      0.00%     75.06% # Class of committed instruction
system.cpu.op_class_0::SimdAes                      0      0.00%     75.06% # Class of committed instruction
system.cpu.op_class_0::SimdAesMix                   0      0.00%     75.06% # Class of committed instruction
system.cpu.op_class_0::SimdSha1Hash                 0      0.00%     75.06% # Class of committed instruction
system.cpu.op_class_0::SimdSha1Hash2                0      0.00%     75.06% # Class of committed instruction
system.cpu.op_class_0::SimdSha256Hash               0      0.00%     75.06% # Class of committed instruction
system.cpu.op_class_0::SimdSha256Hash2              0      0.00%     75.06% # Class of committed instruction
system.cpu.op_class_0::SimdShaSigma2                0      0.00%     75.06% # Class of committed instruction
system.cpu.op_class_0::SimdShaSigma3                0      0.00%     75.06% # Class of committed instruction
system.cpu.op_class_0::SimdPredAlu                  0      0.00%     75.06% # Class of committed instruction
system.cpu.op_class_0::MemRead                 706344     15.06%     90.13% # Class of committed instruction
system.cpu.op_class_0::MemWrite                462832      9.87%    100.00% # Class of committed instruction
system.cpu.op_class_0::FloatMemRead                 0      0.00%    100.00% # Class of committed instruction
system.cpu.op_class_0::FloatMemWrite                0      0.00%    100.00% # Class of committed instruction
system.cpu.op_class_0::IprAccess                    0      0.00%    100.00% # Class of committed instruction
system.cpu.op_class_0::InstPrefetch                 0      0.00%    100.00% # Class of committed instruction
system.cpu.op_class_0::total                  4688893                       # Class of committed instruction
system.cpu.quiesceCycles                     54156082                       # Total number of cycles that CPU has spent quiesced or waiting for an interrupt
system.cpu.tickCycles                         5117787                       # Number of cycles that the object actually ticked
system.membus.snoop_filter.hit_multi_requests          145                       # Number of requests hitting in the snoop filter with multiple (>1) holders of the requested data.
system.membus.snoop_filter.hit_multi_snoops            0                       # Number of snoops hitting in the snoop filter with multiple (>1) holders of the requested data.
system.membus.snoop_filter.hit_single_requests         7461                       # Number of requests hitting in the snoop filter with a single holder of the requested data.
system.membus.snoop_filter.hit_single_snoops            0                       # Number of snoops hitting in the snoop filter with a single holder of the requested data.
system.membus.snoop_filter.tot_requests         15049                       # Total number of requests made to the snoop filter.
system.membus.snoop_filter.tot_snoops               0                       # Total number of snoops made to the snoop filter.
system.bridge.pwrStateResidencyTicks::UNDEFINED 145815101250                       # Cumulative time (in ticks) in various power states
system.voltage_domain.voltage                       1                       # Voltage in Volts
system.iocache.pwrStateResidencyTicks::UNDEFINED 145815101250                       # Cumulative time (in ticks) in various power states
system.iocache.blocked_cycles::no_mshrs             0                       # number of cycles access was blocked
system.iocache.blocked_cycles::no_targets            0                       # number of cycles access was blocked
system.iocache.blocked::no_mshrs                    0                       # number of cycles access was blocked
system.iocache.blocked::no_targets                  0                       # number of cycles access was blocked
system.iocache.avg_blocked_cycles::no_mshrs          nan                       # average number of cycles each access was blocked
system.iocache.avg_blocked_cycles::no_targets          nan                       # average number of cycles each access was blocked
system.iocache.replacements                         0                       # number of replacements
system.iocache.tags.pwrStateResidencyTicks::UNDEFINED 145815101250                       # Cumulative time (in ticks) in various power states
system.iocache.tags.tagsinuse                       0                       # Cycle average of tags in use
system.iocache.tags.total_refs                      0                       # Total number of references to valid blocks.
system.iocache.tags.sampled_refs                    0                       # Sample count of references to valid blocks.
system.iocache.tags.avg_refs                      nan                       # Average number of references to valid blocks.
system.iocache.tags.warmup_cycle                    0                       # Cycle when the warmup percentage was hit.
system.iocache.tags.tag_accesses                    0                       # Number of tag accesses
system.iocache.tags.data_accesses                   0                       # Number of data accesses
system.membus.pwrStateResidencyTicks::UNDEFINED 145815101250                       # Cumulative time (in ticks) in various power states
system.membus.trans_dist::ReadReq             1651907                       # Transaction distribution
system.membus.trans_dist::ReadResp            1658281                       # Transaction distribution
system.membus.trans_dist::WriteReq            1011507                       # Transaction distribution
system.membus.trans_dist::WriteResp           1011507                       # Transaction distribution
system.membus.trans_dist::WritebackDirty         2751                       # Transaction distribution
system.membus.trans_dist::CleanEvict             4683                       # Transaction distribution
system.membus.trans_dist::ReadExReq              1229                       # Transaction distribution
system.membus.trans_dist::ReadExResp             1230                       # Transaction distribution
system.membus.trans_dist::ReadCleanReq           3751                       # Transaction distribution
system.membus.trans_dist::ReadSharedReq          2624                       # Transaction distribution
system.membus.pkt_count_system.cpu.icache.mem_side::system.realview.bootmem.port        11081                       # Packet count per connected master and slave (bytes)
system.membus.pkt_count_system.cpu.icache.mem_side::total        11081                       # Packet count per connected master and slave (bytes)
system.membus.pkt_count_system.cpu.dcache.mem_side::system.realview.bootmem.port          138                       # Packet count per connected master and slave (bytes)
system.membus.pkt_count_system.cpu.dcache.mem_side::system.realview.gic.pio        14682                       # Packet count per connected master and slave (bytes)
system.membus.pkt_count_system.cpu.dcache.mem_side::system.mem_ctrls.port        11423                       # Packet count per connected master and slave (bytes)
system.membus.pkt_count_system.cpu.dcache.mem_side::system.acctest.mem2cls.slave        57274                       # Packet count per connected master and slave (bytes)
system.membus.pkt_count_system.cpu.dcache.mem_side::total        83517                       # Packet count per connected master and slave (bytes)
system.membus.pkt_count_system.acctest.coherency_bus.master[0]::system.mem_ctrls.port      5254872                       # Packet count per connected master and slave (bytes)
system.membus.pkt_count_system.acctest.coherency_bus.master[0]::total      5254872                       # Packet count per connected master and slave (bytes)
system.membus.pkt_count::total                5349470                       # Packet count per connected master and slave (bytes)
system.membus.pkt_size_system.cpu.icache.mem_side::system.realview.bootmem.port       240000                       # Cumulative packet size per connected master and slave (bytes)
system.membus.pkt_size_system.cpu.icache.mem_side::total       240000                       # Cumulative packet size per connected master and slave (bytes)
system.membus.pkt_size_system.cpu.dcache.mem_side::system.realview.bootmem.port         3456                       # Cumulative packet size per connected master and slave (bytes)
system.membus.pkt_size_system.cpu.dcache.mem_side::system.realview.gic.pio        29364                       # Cumulative packet size per connected master and slave (bytes)
system.membus.pkt_size_system.cpu.dcache.mem_side::system.mem_ctrls.port       419264                       # Cumulative packet size per connected master and slave (bytes)
system.membus.pkt_size_system.cpu.dcache.mem_side::system.acctest.mem2cls.slave        80819                       # Cumulative packet size per connected master and slave (bytes)
system.membus.pkt_size_system.cpu.dcache.mem_side::total       532903                       # Cumulative packet size per connected master and slave (bytes)
system.membus.pkt_size_system.acctest.coherency_bus.master[0]::system.mem_ctrls.port    168154344                       # Cumulative packet size per connected master and slave (bytes)
system.membus.pkt_size_system.acctest.coherency_bus.master[0]::total    168154344                       # Cumulative packet size per connected master and slave (bytes)
system.membus.pkt_size::total               168927247                       # Cumulative packet size per connected master and slave (bytes)
system.membus.snoops                                0                       # Total snoops (count)
system.membus.snoopTraffic                          0                       # Total snoop traffic (bytes)
system.membus.snoop_fanout::samples           2674649                       # Request fanout histogram
system.membus.snoop_fanout::mean             0.000064                       # Request fanout histogram
system.membus.snoop_fanout::stdev            0.007972                       # Request fanout histogram
system.membus.snoop_fanout::underflows              0      0.00%      0.00% # Request fanout histogram
system.membus.snoop_fanout::0                 2674479     99.99%     99.99% # Request fanout histogram
system.membus.snoop_fanout::1                     170      0.01%    100.00% # Request fanout histogram
system.membus.snoop_fanout::2                       0      0.00%    100.00% # Request fanout histogram
system.membus.snoop_fanout::3                       0      0.00%    100.00% # Request fanout histogram
system.membus.snoop_fanout::4                       0      0.00%    100.00% # Request fanout histogram
system.membus.snoop_fanout::overflows               0      0.00%    100.00% # Request fanout histogram
system.membus.snoop_fanout::min_value               0                       # Request fanout histogram
system.membus.snoop_fanout::max_value               1                       # Request fanout histogram
system.membus.snoop_fanout::total             2674649                       # Request fanout histogram
system.membus.reqLayer6.occupancy          7203094900                       # Layer occupancy (ticks)
system.membus.reqLayer6.utilization              17.6                       # Layer utilization (%)
system.membus.reqLayer7.occupancy            72792998                       # Layer occupancy (ticks)
system.membus.reqLayer7.utilization               0.2                       # Layer utilization (%)
system.membus.reqLayer1.occupancy            10890952                       # Layer occupancy (ticks)
system.membus.reqLayer1.utilization               0.0                       # Layer utilization (%)
system.membus.reqLayer2.occupancy            14182000                       # Layer occupancy (ticks)
system.membus.reqLayer2.utilization               0.0                       # Layer utilization (%)
system.membus.badaddr_responder.pwrStateResidencyTicks::UNDEFINED 145815101250                       # Cumulative time (in ticks) in various power states
system.membus.respLayer4.occupancy           61679280                       # Layer occupancy (ticks)
system.membus.respLayer4.utilization              0.2                       # Layer utilization (%)
system.membus.respLayer7.occupancy        10208153713                       # Layer occupancy (ticks)
system.membus.respLayer7.utilization             25.0                       # Layer utilization (%)
system.membus.respLayer3.occupancy           18841500                       # Layer occupancy (ticks)
system.membus.respLayer3.utilization              0.0                       # Layer utilization (%)
system.acctest.harris_non_max0_spm.pwrStateResidencyTicks::UNDEFINED 145815101250                       # Cumulative time (in ticks) in various power states
system.acctest.harris_non_max0_spm.bytes_read::.acctest.harris_non_max0.system.acctest.harris_non_max0       327680                       # Number of bytes read from this memory
system.acctest.harris_non_max0_spm.bytes_read::.acctest.harris_non_max0_dma        81920                       # Number of bytes read from this memory
system.acctest.harris_non_max0_spm.bytes_read::total       409600                       # Number of bytes read from this memory
system.acctest.harris_non_max0_spm.bytes_written::.acctest.harris_non_max0.system.acctest.harris_non_max0        81920                       # Number of bytes written to this memory
system.acctest.harris_non_max0_spm.bytes_written::.acctest.harris_non_max0_dma       327680                       # Number of bytes written to this memory
system.acctest.harris_non_max0_spm.bytes_written::total       409600                       # Number of bytes written to this memory
system.acctest.harris_non_max0_spm.num_reads::.acctest.harris_non_max0.system.acctest.harris_non_max0        81920                       # Number of read requests responded to by this memory
system.acctest.harris_non_max0_spm.num_reads::.acctest.harris_non_max0_dma         2560                       # Number of read requests responded to by this memory
system.acctest.harris_non_max0_spm.num_reads::total        84480                       # Number of read requests responded to by this memory
system.acctest.harris_non_max0_spm.num_writes::.acctest.harris_non_max0.system.acctest.harris_non_max0        81920                       # Number of write requests responded to by this memory
system.acctest.harris_non_max0_spm.num_writes::.acctest.harris_non_max0_dma        10240                       # Number of write requests responded to by this memory
system.acctest.harris_non_max0_spm.num_writes::total        92160                       # Number of write requests responded to by this memory
system.acctest.harris_non_max0_spm.bw_read::.acctest.harris_non_max0.system.acctest.harris_non_max0      8015336                       # Total read bandwidth from this memory (bytes/s)
system.acctest.harris_non_max0_spm.bw_read::.acctest.harris_non_max0_dma      2003834                       # Total read bandwidth from this memory (bytes/s)
system.acctest.harris_non_max0_spm.bw_read::total     10019170                       # Total read bandwidth from this memory (bytes/s)
system.acctest.harris_non_max0_spm.bw_write::.acctest.harris_non_max0.system.acctest.harris_non_max0      2003834                       # Write bandwidth from this memory (bytes/s)
system.acctest.harris_non_max0_spm.bw_write::.acctest.harris_non_max0_dma      8015336                       # Write bandwidth from this memory (bytes/s)
system.acctest.harris_non_max0_spm.bw_write::total     10019170                       # Write bandwidth from this memory (bytes/s)
system.acctest.harris_non_max0_spm.bw_total::.acctest.harris_non_max0.system.acctest.harris_non_max0     10019170                       # Total bandwidth to/from this memory (bytes/s)
system.acctest.harris_non_max0_spm.bw_total::.acctest.harris_non_max0_dma     10019170                       # Total bandwidth to/from this memory (bytes/s)
system.acctest.harris_non_max0_spm.bw_total::total     20038339                       # Total bandwidth to/from this memory (bytes/s)
system.acctest.elem_matrix2_spm.pwrStateResidencyTicks::UNDEFINED 145815101250                       # Cumulative time (in ticks) in various power states
system.acctest.elem_matrix3_spm.pwrStateResidencyTicks::UNDEFINED 145815101250                       # Cumulative time (in ticks) in various power states
system.acctest.local_bus.pwrStateResidencyTicks::UNDEFINED 145815101250                       # Cumulative time (in ticks) in various power states
system.acctest.local_bus.trans_dist::ReadReq      2076160                       # Transaction distribution
system.acctest.local_bus.trans_dist::ReadResp      2076160                       # Transaction distribution
system.acctest.local_bus.trans_dist::WriteReq      3442857                       # Transaction distribution
system.acctest.local_bus.trans_dist::WriteResp      3442857                       # Transaction distribution
system.acctest.local_bus.pkt_count_system.acctest.mem2cls.master::system.acctest.convolution0.pio          596                       # Packet count per connected master and slave (bytes)
system.acctest.local_bus.pkt_count_system.acctest.mem2cls.master::system.acctest.convolution0_dma.pio         1246                       # Packet count per connected master and slave (bytes)
system.acctest.local_bus.pkt_count_system.acctest.mem2cls.master::system.acctest.elem_matrix0.pio        19120                       # Packet count per connected master and slave (bytes)
system.acctest.local_bus.pkt_count_system.acctest.mem2cls.master::system.acctest.elem_matrix0_dma.pio        35728                       # Packet count per connected master and slave (bytes)
system.acctest.local_bus.pkt_count_system.acctest.mem2cls.master::system.acctest.grayscale0.pio           60                       # Packet count per connected master and slave (bytes)
system.acctest.local_bus.pkt_count_system.acctest.mem2cls.master::system.acctest.grayscale0_dma.pio          168                       # Packet count per connected master and slave (bytes)
system.acctest.local_bus.pkt_count_system.acctest.mem2cls.master::system.acctest.harris_non_max0.pio           60                       # Packet count per connected master and slave (bytes)
system.acctest.local_bus.pkt_count_system.acctest.mem2cls.master::system.acctest.harris_non_max0_dma.pio          140                       # Packet count per connected master and slave (bytes)
system.acctest.local_bus.pkt_count_system.acctest.mem2cls.master::system.acctest.isp0.pio           72                       # Packet count per connected master and slave (bytes)
system.acctest.local_bus.pkt_count_system.acctest.mem2cls.master::system.acctest.isp0_dma.pio           84                       # Packet count per connected master and slave (bytes)
system.acctest.local_bus.pkt_count_system.acctest.mem2cls.master::total        57274                       # Packet count per connected master and slave (bytes)
system.acctest.local_bus.pkt_count_system.acctest.convolution0_dma.dma::system.acctest.convolution0_spm.port       241856                       # Packet count per connected master and slave (bytes)
system.acctest.local_bus.pkt_count_system.acctest.convolution0_dma.dma::system.acctest.elem_matrix0_spm.port         4096                       # Packet count per connected master and slave (bytes)
system.acctest.local_bus.pkt_count_system.acctest.convolution0_dma.dma::system.acctest.grayscale0_spm.port        49152                       # Packet count per connected master and slave (bytes)
system.acctest.local_bus.pkt_count_system.acctest.convolution0_dma.dma::total       295104                       # Packet count per connected master and slave (bytes)
system.acctest.local_bus.pkt_count_system.acctest.elem_matrix0_dma.dma::system.acctest.convolution0_spm.port       143360                       # Packet count per connected master and slave (bytes)
system.acctest.local_bus.pkt_count_system.acctest.elem_matrix0_dma.dma::system.acctest.elem_matrix0_spm.port     10428428                       # Packet count per connected master and slave (bytes)
system.acctest.local_bus.pkt_count_system.acctest.elem_matrix0_dma.dma::total     10571788                       # Packet count per connected master and slave (bytes)
system.acctest.local_bus.pkt_count_system.acctest.grayscale0_dma.dma::system.acctest.grayscale0_spm.port        43008                       # Packet count per connected master and slave (bytes)
system.acctest.local_bus.pkt_count_system.acctest.grayscale0_dma.dma::system.acctest.isp0_spm.port        18432                       # Packet count per connected master and slave (bytes)
system.acctest.local_bus.pkt_count_system.acctest.grayscale0_dma.dma::total        61440                       # Packet count per connected master and slave (bytes)
system.acctest.local_bus.pkt_count_system.acctest.harris_non_max0_dma.dma::system.acctest.elem_matrix0_spm.port        20480                       # Packet count per connected master and slave (bytes)
system.acctest.local_bus.pkt_count_system.acctest.harris_non_max0_dma.dma::system.acctest.harris_non_max0_spm.port        25600                       # Packet count per connected master and slave (bytes)
system.acctest.local_bus.pkt_count_system.acctest.harris_non_max0_dma.dma::total        46080                       # Packet count per connected master and slave (bytes)
system.acctest.local_bus.pkt_count_system.acctest.isp0_dma.dma::system.acctest.isp0_spm.port         6348                       # Packet count per connected master and slave (bytes)
system.acctest.local_bus.pkt_count_system.acctest.isp0_dma.dma::total         6348                       # Packet count per connected master and slave (bytes)
system.acctest.local_bus.pkt_count::total     11038034                       # Packet count per connected master and slave (bytes)
system.acctest.local_bus.pkt_size_system.acctest.mem2cls.master::system.acctest.convolution0.pio          838                       # Cumulative packet size per connected master and slave (bytes)
system.acctest.local_bus.pkt_size_system.acctest.mem2cls.master::system.acctest.convolution0_dma.pio         1958                       # Cumulative packet size per connected master and slave (bytes)
system.acctest.local_bus.pkt_size_system.acctest.mem2cls.master::system.acctest.elem_matrix0.pio        21032                       # Cumulative packet size per connected master and slave (bytes)
system.acctest.local_bus.pkt_size_system.acctest.mem2cls.master::system.acctest.elem_matrix0_dma.pio        56144                       # Cumulative packet size per connected master and slave (bytes)
system.acctest.local_bus.pkt_size_system.acctest.mem2cls.master::system.acctest.grayscale0.pio           66                       # Cumulative packet size per connected master and slave (bytes)
system.acctest.local_bus.pkt_size_system.acctest.mem2cls.master::system.acctest.grayscale0_dma.pio          264                       # Cumulative packet size per connected master and slave (bytes)
system.acctest.local_bus.pkt_size_system.acctest.mem2cls.master::system.acctest.harris_non_max0.pio           75                       # Cumulative packet size per connected master and slave (bytes)
system.acctest.local_bus.pkt_size_system.acctest.mem2cls.master::system.acctest.harris_non_max0_dma.pio          220                       # Cumulative packet size per connected master and slave (bytes)
system.acctest.local_bus.pkt_size_system.acctest.mem2cls.master::system.acctest.isp0.pio           90                       # Cumulative packet size per connected master and slave (bytes)
system.acctest.local_bus.pkt_size_system.acctest.mem2cls.master::system.acctest.isp0_dma.pio          132                       # Cumulative packet size per connected master and slave (bytes)
system.acctest.local_bus.pkt_size_system.acctest.mem2cls.master::total        80819                       # Cumulative packet size per connected master and slave (bytes)
system.acctest.local_bus.pkt_size_system.acctest.convolution0_dma.dma::system.acctest.convolution0_spm.port      3868856                       # Cumulative packet size per connected master and slave (bytes)
system.acctest.local_bus.pkt_size_system.acctest.convolution0_dma.dma::system.acctest.elem_matrix0_spm.port        65536                       # Cumulative packet size per connected master and slave (bytes)
system.acctest.local_bus.pkt_size_system.acctest.convolution0_dma.dma::system.acctest.grayscale0_spm.port       786432                       # Cumulative packet size per connected master and slave (bytes)
system.acctest.local_bus.pkt_size_system.acctest.convolution0_dma.dma::total      4720824                       # Cumulative packet size per connected master and slave (bytes)
system.acctest.local_bus.pkt_size_system.acctest.elem_matrix0_dma.dma::system.acctest.convolution0_spm.port      2293760                       # Cumulative packet size per connected master and slave (bytes)
system.acctest.local_bus.pkt_size_system.acctest.elem_matrix0_dma.dma::system.acctest.elem_matrix0_spm.port    166854680                       # Cumulative packet size per connected master and slave (bytes)
system.acctest.local_bus.pkt_size_system.acctest.elem_matrix0_dma.dma::total    169148440                       # Cumulative packet size per connected master and slave (bytes)
system.acctest.local_bus.pkt_size_system.acctest.grayscale0_dma.dma::system.acctest.grayscale0_spm.port       688128                       # Cumulative packet size per connected master and slave (bytes)
system.acctest.local_bus.pkt_size_system.acctest.grayscale0_dma.dma::system.acctest.isp0_spm.port       294912                       # Cumulative packet size per connected master and slave (bytes)
system.acctest.local_bus.pkt_size_system.acctest.grayscale0_dma.dma::total       983040                       # Cumulative packet size per connected master and slave (bytes)
system.acctest.local_bus.pkt_size_system.acctest.harris_non_max0_dma.dma::system.acctest.elem_matrix0_spm.port       327680                       # Cumulative packet size per connected master and slave (bytes)
system.acctest.local_bus.pkt_size_system.acctest.harris_non_max0_dma.dma::system.acctest.harris_non_max0_spm.port       409600                       # Cumulative packet size per connected master and slave (bytes)
system.acctest.local_bus.pkt_size_system.acctest.harris_non_max0_dma.dma::total       737280                       # Cumulative packet size per connected master and slave (bytes)
system.acctest.local_bus.pkt_size_system.acctest.isp0_dma.dma::system.acctest.isp0_spm.port       101400                       # Cumulative packet size per connected master and slave (bytes)
system.acctest.local_bus.pkt_size_system.acctest.isp0_dma.dma::total       101400                       # Cumulative packet size per connected master and slave (bytes)
system.acctest.local_bus.pkt_size::total    175771803                       # Cumulative packet size per connected master and slave (bytes)
system.acctest.local_bus.occupancy        18561836126                       # Network occupancy (ticks)
system.acctest.local_bus.utilization             45.4                       # Network utilization (%)
system.acctest.local_bus.numRequests         12182875                       # Number of requests
system.acctest.local_bus.averageQueuingDelay          769                       # Average queuing delay (ticks)
system.acctest.local_bus.tailQueuingDelay        10000                       # Tail queuing delay (ticks)
system.acctest.local_bus.averageQueueLength         0.23                       # Average queue length
system.acctest.local_bus.maxQueueLength             6                       # Max queue length
system.acctest.local_bus.reqLayer0.occupancy  14959375972                       # Layer occupancy (ticks)
system.acctest.local_bus.reqLayer0.utilization         36.6                       # Layer utilization (%)
system.acctest.local_bus.respLayer0.occupancy   9675945000                       # Layer occupancy (ticks)
system.acctest.local_bus.respLayer0.utilization         23.7                       # Layer utilization (%)
system.acctest.isp0.pwrStateResidencyTicks::UNDEFINED 145815101250                       # Cumulative time (in ticks) in various power states
system.acctest.edge_tracking0.pwrStateResidencyTicks::UNDEFINED 145815101250                       # Cumulative time (in ticks) in various power states
system.acctest.grayscale0_spm.pwrStateResidencyTicks::UNDEFINED 145815101250                       # Cumulative time (in ticks) in various power states
system.acctest.grayscale0_spm.bytes_read::.acctest.convolution0_dma       786432                       # Number of bytes read from this memory
system.acctest.grayscale0_spm.bytes_read::.acctest.grayscale0.system.acctest.grayscale0       294912                       # Number of bytes read from this memory
system.acctest.grayscale0_spm.bytes_read::.acctest.grayscale0_dma       393216                       # Number of bytes read from this memory
system.acctest.grayscale0_spm.bytes_read::total      1474560                       # Number of bytes read from this memory
system.acctest.grayscale0_spm.bytes_written::.acctest.grayscale0.system.acctest.grayscale0       393216                       # Number of bytes written to this memory
system.acctest.grayscale0_spm.bytes_written::.acctest.grayscale0_dma       294912                       # Number of bytes written to this memory
system.acctest.grayscale0_spm.bytes_written::total       688128                       # Number of bytes written to this memory
system.acctest.grayscale0_spm.num_reads::.acctest.convolution0_dma        24576                       # Number of read requests responded to by this memory
system.acctest.grayscale0_spm.num_reads::.acctest.grayscale0.system.acctest.grayscale0       294912                       # Number of read requests responded to by this memory
system.acctest.grayscale0_spm.num_reads::.acctest.grayscale0_dma        12288                       # Number of read requests responded to by this memory
system.acctest.grayscale0_spm.num_reads::total       331776                       # Number of read requests responded to by this memory
system.acctest.grayscale0_spm.num_writes::.acctest.grayscale0.system.acctest.grayscale0        98304                       # Number of write requests responded to by this memory
system.acctest.grayscale0_spm.num_writes::.acctest.grayscale0_dma         9216                       # Number of write requests responded to by this memory
system.acctest.grayscale0_spm.num_writes::total       107520                       # Number of write requests responded to by this memory
system.acctest.grayscale0_spm.bw_read::.acctest.convolution0_dma     19236806                       # Total read bandwidth from this memory (bytes/s)
system.acctest.grayscale0_spm.bw_read::.acctest.grayscale0.system.acctest.grayscale0      7213802                       # Total read bandwidth from this memory (bytes/s)
system.acctest.grayscale0_spm.bw_read::.acctest.grayscale0_dma      9618403                       # Total read bandwidth from this memory (bytes/s)
system.acctest.grayscale0_spm.bw_read::total     36069011                       # Total read bandwidth from this memory (bytes/s)
system.acctest.grayscale0_spm.bw_write::.acctest.grayscale0.system.acctest.grayscale0      9618403                       # Write bandwidth from this memory (bytes/s)
system.acctest.grayscale0_spm.bw_write::.acctest.grayscale0_dma      7213802                       # Write bandwidth from this memory (bytes/s)
system.acctest.grayscale0_spm.bw_write::total     16832205                       # Write bandwidth from this memory (bytes/s)
system.acctest.grayscale0_spm.bw_total::.acctest.convolution0_dma     19236806                       # Total bandwidth to/from this memory (bytes/s)
system.acctest.grayscale0_spm.bw_total::.acctest.grayscale0.system.acctest.grayscale0     16832205                       # Total bandwidth to/from this memory (bytes/s)
system.acctest.grayscale0_spm.bw_total::.acctest.grayscale0_dma     16832205                       # Total bandwidth to/from this memory (bytes/s)
system.acctest.grayscale0_spm.bw_total::total     52901216                       # Total bandwidth to/from this memory (bytes/s)
system.acctest.elem_matrix1_dma.pwrStateResidencyTicks::UNDEFINED 145815101250                       # Cumulative time (in ticks) in various power states
system.acctest.mem2cls.pwrStateResidencyTicks::UNDEFINED 145815101250                       # Cumulative time (in ticks) in various power states
system.acctest.isp0_dma.pwrStateResidencyTicks::UNDEFINED 145815101250                       # Cumulative time (in ticks) in various power states
system.acctest.grayscale0_dma.pwrStateResidencyTicks::UNDEFINED 145815101250                       # Cumulative time (in ticks) in various power states
system.acctest.convolution0.pwrStateResidencyTicks::UNDEFINED 145815101250                       # Cumulative time (in ticks) in various power states
system.acctest.convolution1.pwrStateResidencyTicks::UNDEFINED 145815101250                       # Cumulative time (in ticks) in various power states
system.acctest.isp0_spm.pwrStateResidencyTicks::UNDEFINED 145815101250                       # Cumulative time (in ticks) in various power states
system.acctest.isp0_spm.bytes_read::.acctest.grayscale0_dma       294912                       # Number of bytes read from this memory
system.acctest.isp0_spm.bytes_read::.acctest.isp0.system.acctest.isp0       688128                       # Number of bytes read from this memory
system.acctest.isp0_spm.bytes_read::total       983040                       # Number of bytes read from this memory
system.acctest.isp0_spm.bytes_written::.acctest.isp0.system.acctest.isp0       294912                       # Number of bytes written to this memory
system.acctest.isp0_spm.bytes_written::.acctest.isp0_dma       101400                       # Number of bytes written to this memory
system.acctest.isp0_spm.bytes_written::total       396312                       # Number of bytes written to this memory
system.acctest.isp0_spm.num_reads::.acctest.grayscale0_dma         9216                       # Number of read requests responded to by this memory
system.acctest.isp0_spm.num_reads::.acctest.isp0.system.acctest.isp0       688128                       # Number of read requests responded to by this memory
system.acctest.isp0_spm.num_reads::total       697344                       # Number of read requests responded to by this memory
system.acctest.isp0_spm.num_writes::.acctest.isp0.system.acctest.isp0       294912                       # Number of write requests responded to by this memory
system.acctest.isp0_spm.num_writes::.acctest.isp0_dma         3174                       # Number of write requests responded to by this memory
system.acctest.isp0_spm.num_writes::total       298086                       # Number of write requests responded to by this memory
system.acctest.isp0_spm.bw_read::.acctest.grayscale0_dma      7213802                       # Total read bandwidth from this memory (bytes/s)
system.acctest.isp0_spm.bw_read::.acctest.isp0.system.acctest.isp0     16832205                       # Total read bandwidth from this memory (bytes/s)
system.acctest.isp0_spm.bw_read::total       24046007                       # Total read bandwidth from this memory (bytes/s)
system.acctest.isp0_spm.bw_write::.acctest.isp0.system.acctest.isp0      7213802                       # Write bandwidth from this memory (bytes/s)
system.acctest.isp0_spm.bw_write::.acctest.isp0_dma      2480332                       # Write bandwidth from this memory (bytes/s)
system.acctest.isp0_spm.bw_write::total       9694134                       # Write bandwidth from this memory (bytes/s)
system.acctest.isp0_spm.bw_total::.acctest.grayscale0_dma      7213802                       # Total bandwidth to/from this memory (bytes/s)
system.acctest.isp0_spm.bw_total::.acctest.isp0.system.acctest.isp0     24046007                       # Total bandwidth to/from this memory (bytes/s)
system.acctest.isp0_spm.bw_total::.acctest.isp0_dma      2480332                       # Total bandwidth to/from this memory (bytes/s)
system.acctest.isp0_spm.bw_total::total      33740141                       # Total bandwidth to/from this memory (bytes/s)
system.acctest.coherency_bus.pwrStateResidencyTicks::UNDEFINED 145815101250                       # Cumulative time (in ticks) in various power states
system.acctest.coherency_bus.trans_dist::ReadReq      1648236                       # Transaction distribution
system.acctest.coherency_bus.trans_dist::ReadResp      1648236                       # Transaction distribution
system.acctest.coherency_bus.trans_dist::WriteReq       979200                       # Transaction distribution
system.acctest.coherency_bus.trans_dist::WriteResp       979200                       # Transaction distribution
system.acctest.coherency_bus.pkt_count_system.acctest.convolution0_dma.dma::system.membus.slave[7]        94304                       # Packet count per connected master and slave (bytes)
system.acctest.coherency_bus.pkt_count_system.acctest.elem_matrix0_dma.dma::system.membus.slave[7]      5142540                       # Packet count per connected master and slave (bytes)
system.acctest.coherency_bus.pkt_count_system.acctest.grayscale0_dma.dma::system.membus.slave[7]        12288                       # Packet count per connected master and slave (bytes)
system.acctest.coherency_bus.pkt_count_system.acctest.harris_non_max0_dma.dma::system.membus.slave[7]         2560                       # Packet count per connected master and slave (bytes)
system.acctest.coherency_bus.pkt_count_system.acctest.isp0_dma.dma::system.membus.slave[7]         3180                       # Packet count per connected master and slave (bytes)
system.acctest.coherency_bus.pkt_count::total      5254872                       # Packet count per connected master and slave (bytes)
system.acctest.coherency_bus.pkt_size_system.acctest.convolution0_dma.dma::system.membus.slave[7]      3016888                       # Cumulative packet size per connected master and slave (bytes)
system.acctest.coherency_bus.pkt_size_system.acctest.elem_matrix0_dma.dma::system.membus.slave[7]    164560920                       # Cumulative packet size per connected master and slave (bytes)
system.acctest.coherency_bus.pkt_size_system.acctest.grayscale0_dma.dma::system.membus.slave[7]       393216                       # Cumulative packet size per connected master and slave (bytes)
system.acctest.coherency_bus.pkt_size_system.acctest.harris_non_max0_dma.dma::system.membus.slave[7]        81920                       # Cumulative packet size per connected master and slave (bytes)
system.acctest.coherency_bus.pkt_size_system.acctest.isp0_dma.dma::system.membus.slave[7]       101400                       # Cumulative packet size per connected master and slave (bytes)
system.acctest.coherency_bus.pkt_size::total    168154344                       # Cumulative packet size per connected master and slave (bytes)
system.acctest.coherency_bus.snoops                 0                       # Total snoops (count)
system.acctest.coherency_bus.snoopTraffic            0                       # Total snoop traffic (bytes)
system.acctest.coherency_bus.snoop_fanout::samples      3267226                       # Request fanout histogram
system.acctest.coherency_bus.snoop_fanout::mean            0                       # Request fanout histogram
system.acctest.coherency_bus.snoop_fanout::stdev            0                       # Request fanout histogram
system.acctest.coherency_bus.snoop_fanout::underflows            0      0.00%      0.00% # Request fanout histogram
system.acctest.coherency_bus.snoop_fanout::0      3267226    100.00%    100.00% # Request fanout histogram
system.acctest.coherency_bus.snoop_fanout::overflows            0      0.00%    100.00% # Request fanout histogram
system.acctest.coherency_bus.snoop_fanout::min_value            0                       # Request fanout histogram
system.acctest.coherency_bus.snoop_fanout::max_value            0                       # Request fanout histogram
system.acctest.coherency_bus.snoop_fanout::total      3267226                       # Request fanout histogram
system.acctest.coherency_bus.reqLayer0.occupancy   7817678650                       # Layer occupancy (ticks)
system.acctest.coherency_bus.reqLayer0.utilization         19.1                       # Layer utilization (%)
system.acctest.coherency_bus.respLayer0.occupancy   9220314000                       # Layer occupancy (ticks)
system.acctest.coherency_bus.respLayer0.utilization         22.6                       # Layer utilization (%)
system.acctest.convolution0_spm.pwrStateResidencyTicks::UNDEFINED 145815101250                       # Cumulative time (in ticks) in various power states
system.acctest.convolution0_spm.bytes_read::.acctest.convolution0.system.acctest.convolution0     70019624                       # Number of bytes read from this memory
system.acctest.convolution0_spm.bytes_read::.acctest.convolution0_dma      1900544                       # Number of bytes read from this memory
system.acctest.convolution0_spm.bytes_read::.acctest.elem_matrix0_dma      2293760                       # Number of bytes read from this memory
system.acctest.convolution0_spm.bytes_read::total     74213928                       # Number of bytes read from this memory
system.acctest.convolution0_spm.bytes_written::.acctest.convolution0.system.acctest.convolution0      1928000                       # Number of bytes written to this memory
system.acctest.convolution0_spm.bytes_written::.acctest.convolution0_dma      1968312                       # Number of bytes written to this memory
system.acctest.convolution0_spm.bytes_written::total      3896312                       # Number of bytes written to this memory
system.acctest.convolution0_spm.num_reads::.acctest.convolution0.system.acctest.convolution0     17504906                       # Number of read requests responded to by this memory
system.acctest.convolution0_spm.num_reads::.acctest.convolution0_dma        59392                       # Number of read requests responded to by this memory
system.acctest.convolution0_spm.num_reads::.acctest.elem_matrix0_dma        71680                       # Number of read requests responded to by this memory
system.acctest.convolution0_spm.num_reads::total     17635978                       # Number of read requests responded to by this memory
system.acctest.convolution0_spm.num_writes::.acctest.convolution0.system.acctest.convolution0       482000                       # Number of write requests responded to by this memory
system.acctest.convolution0_spm.num_writes::.acctest.convolution0_dma        61536                       # Number of write requests responded to by this memory
system.acctest.convolution0_spm.num_writes::total       543536                       # Number of write requests responded to by this memory
system.acctest.convolution0_spm.bw_read::.acctest.convolution0.system.acctest.convolution0   1712740462                       # Total read bandwidth from this memory (bytes/s)
system.acctest.convolution0_spm.bw_read::.acctest.convolution0_dma     46488947                       # Total read bandwidth from this memory (bytes/s)
system.acctest.convolution0_spm.bw_read::.acctest.elem_matrix0_dma     56107350                       # Total read bandwidth from this memory (bytes/s)
system.acctest.convolution0_spm.bw_read::total   1815336760                       # Total read bandwidth from this memory (bytes/s)
system.acctest.convolution0_spm.bw_write::.acctest.convolution0.system.acctest.convolution0     47160545                       # Write bandwidth from this memory (bytes/s)
system.acctest.convolution0_spm.bw_write::.acctest.convolution0_dma     48146611                       # Write bandwidth from this memory (bytes/s)
system.acctest.convolution0_spm.bw_write::total     95307156                       # Write bandwidth from this memory (bytes/s)
system.acctest.convolution0_spm.bw_total::.acctest.convolution0.system.acctest.convolution0   1759901007                       # Total bandwidth to/from this memory (bytes/s)
system.acctest.convolution0_spm.bw_total::.acctest.convolution0_dma     94635558                       # Total bandwidth to/from this memory (bytes/s)
system.acctest.convolution0_spm.bw_total::.acctest.elem_matrix0_dma     56107350                       # Total bandwidth to/from this memory (bytes/s)
system.acctest.convolution0_spm.bw_total::total   1910643915                       # Total bandwidth to/from this memory (bytes/s)
system.acctest.elem_matrix0_dma.pwrStateResidencyTicks::UNDEFINED 145815101250                       # Cumulative time (in ticks) in various power states
system.acctest.grayscale0.pwrStateResidencyTicks::UNDEFINED 145815101250                       # Cumulative time (in ticks) in various power states
system.acctest.canny_non_max0.pwrStateResidencyTicks::UNDEFINED 145815101250                       # Cumulative time (in ticks) in various power states
system.acctest.elem_matrix0_spm.pwrStateResidencyTicks::UNDEFINED 145815101250                       # Cumulative time (in ticks) in various power states
system.acctest.elem_matrix0_spm.bytes_read::.acctest.convolution0_dma        65536                       # Number of bytes read from this memory
system.acctest.elem_matrix0_spm.bytes_read::.acctest.elem_matrix0.system.acctest.elem_matrix0    108855320                       # Number of bytes read from this memory
system.acctest.elem_matrix0_spm.bytes_read::.acctest.elem_matrix0_dma     60293120                       # Number of bytes read from this memory
system.acctest.elem_matrix0_spm.bytes_read::.acctest.harris_non_max0_dma       327680                       # Number of bytes read from this memory
system.acctest.elem_matrix0_spm.bytes_read::total    169541656                       # Number of bytes read from this memory
system.acctest.elem_matrix0_spm.bytes_written::.acctest.elem_matrix0.system.acctest.elem_matrix0     62652416                       # Number of bytes written to this memory
system.acctest.elem_matrix0_spm.bytes_written::.acctest.elem_matrix0_dma    106561560                       # Number of bytes written to this memory
system.acctest.elem_matrix0_spm.bytes_written::total    169213976                       # Number of bytes written to this memory
system.acctest.elem_matrix0_spm.num_reads::.acctest.convolution0_dma         2048                       # Number of read requests responded to by this memory
system.acctest.elem_matrix0_spm.num_reads::.acctest.elem_matrix0.system.acctest.elem_matrix0     27213830                       # Number of read requests responded to by this memory
system.acctest.elem_matrix0_spm.num_reads::.acctest.elem_matrix0_dma      1884160                       # Number of read requests responded to by this memory
system.acctest.elem_matrix0_spm.num_reads::.acctest.harris_non_max0_dma        10240                       # Number of read requests responded to by this memory
system.acctest.elem_matrix0_spm.num_reads::total     29110278                       # Number of read requests responded to by this memory
system.acctest.elem_matrix0_spm.num_writes::.acctest.elem_matrix0.system.acctest.elem_matrix0     15663104                       # Number of write requests responded to by this memory
system.acctest.elem_matrix0_spm.num_writes::.acctest.elem_matrix0_dma      3330054                       # Number of write requests responded to by this memory
system.acctest.elem_matrix0_spm.num_writes::total     18993158                       # Number of write requests responded to by this memory
system.acctest.elem_matrix0_spm.bw_read::.acctest.convolution0_dma      1603067                       # Total read bandwidth from this memory (bytes/s)
system.acctest.elem_matrix0_spm.bw_read::.acctest.elem_matrix0.system.acctest.elem_matrix0   2662695119                       # Total read bandwidth from this memory (bytes/s)
system.acctest.elem_matrix0_spm.bw_read::.acctest.elem_matrix0_dma   1474821776                       # Total read bandwidth from this memory (bytes/s)
system.acctest.elem_matrix0_spm.bw_read::.acctest.harris_non_max0_dma      8015336                       # Total read bandwidth from this memory (bytes/s)
system.acctest.elem_matrix0_spm.bw_read::total   4147135298                       # Total read bandwidth from this memory (bytes/s)
system.acctest.elem_matrix0_spm.bw_write::.acctest.elem_matrix0.system.acctest.elem_matrix0   1532532193                       # Write bandwidth from this memory (bytes/s)
system.acctest.elem_matrix0_spm.bw_write::.acctest.elem_matrix0_dma   2606587769                       # Write bandwidth from this memory (bytes/s)
system.acctest.elem_matrix0_spm.bw_write::total   4139119962                       # Write bandwidth from this memory (bytes/s)
system.acctest.elem_matrix0_spm.bw_total::.acctest.convolution0_dma      1603067                       # Total bandwidth to/from this memory (bytes/s)
system.acctest.elem_matrix0_spm.bw_total::.acctest.elem_matrix0.system.acctest.elem_matrix0   4195227313                       # Total bandwidth to/from this memory (bytes/s)
system.acctest.elem_matrix0_spm.bw_total::.acctest.elem_matrix0_dma   4081409545                       # Total bandwidth to/from this memory (bytes/s)
system.acctest.elem_matrix0_spm.bw_total::.acctest.harris_non_max0_dma      8015336                       # Total bandwidth to/from this memory (bytes/s)
system.acctest.elem_matrix0_spm.bw_total::total   8286255260                       # Total bandwidth to/from this memory (bytes/s)
system.acctest.convolution0_dma.pwrStateResidencyTicks::UNDEFINED 145815101250                       # Cumulative time (in ticks) in various power states
system.acctest.convolution1_spm.pwrStateResidencyTicks::UNDEFINED 145815101250                       # Cumulative time (in ticks) in various power states
system.acctest.elem_matrix3_dma.pwrStateResidencyTicks::UNDEFINED 145815101250                       # Cumulative time (in ticks) in various power states
system.acctest.edge_tracking0_spm.pwrStateResidencyTicks::UNDEFINED 145815101250                       # Cumulative time (in ticks) in various power states
system.acctest.canny_non_max0_spm.pwrStateResidencyTicks::UNDEFINED 145815101250                       # Cumulative time (in ticks) in various power states
system.acctest.canny_non_max0_dma.pwrStateResidencyTicks::UNDEFINED 145815101250                       # Cumulative time (in ticks) in various power states
system.acctest.convolution1_dma.pwrStateResidencyTicks::UNDEFINED 145815101250                       # Cumulative time (in ticks) in various power states
system.acctest.elem_matrix1_spm.pwrStateResidencyTicks::UNDEFINED 145815101250                       # Cumulative time (in ticks) in various power states
system.acctest.elem_matrix2_dma.pwrStateResidencyTicks::UNDEFINED 145815101250                       # Cumulative time (in ticks) in various power states
system.acctest.harris_non_max0.pwrStateResidencyTicks::UNDEFINED 145815101250                       # Cumulative time (in ticks) in various power states
system.acctest.edge_tracking0_dma.pwrStateResidencyTicks::UNDEFINED 145815101250                       # Cumulative time (in ticks) in various power states
system.acctest.harris_non_max0_dma.pwrStateResidencyTicks::UNDEFINED 145815101250                       # Cumulative time (in ticks) in various power states
system.acctest.elem_matrix1.pwrStateResidencyTicks::UNDEFINED 145815101250                       # Cumulative time (in ticks) in various power states
system.acctest.elem_matrix0.pwrStateResidencyTicks::UNDEFINED 145815101250                       # Cumulative time (in ticks) in various power states
system.acctest.elem_matrix3.pwrStateResidencyTicks::UNDEFINED 145815101250                       # Cumulative time (in ticks) in various power states
system.acctest.elem_matrix2.pwrStateResidencyTicks::UNDEFINED 145815101250                       # Cumulative time (in ticks) in various power states
system.clk_domain.clock                          1000                       # Clock period in ticks
system.realview.hdlcd.pwrStateResidencyTicks::UNDEFINED 145815101250                       # Cumulative time (in ticks) in various power states
system.realview.realview_io.pwrStateResidencyTicks::UNDEFINED 145815101250                       # Cumulative time (in ticks) in various power states
system.realview.bootmem.pwrStateResidencyTicks::UNDEFINED 145815101250                       # Cumulative time (in ticks) in various power states
system.realview.bootmem.bytes_read::.cpu.inst       240064                       # Number of bytes read from this memory
system.realview.bootmem.bytes_read::.cpu.data         3456                       # Number of bytes read from this memory
system.realview.bootmem.bytes_read::total       243520                       # Number of bytes read from this memory
system.realview.bootmem.bytes_inst_read::.cpu.inst       240064                       # Number of instructions bytes read from this memory
system.realview.bootmem.bytes_inst_read::total       240064                       # Number of instructions bytes read from this memory
system.realview.bootmem.num_reads::.cpu.inst         3751                       # Number of read requests responded to by this memory
system.realview.bootmem.num_reads::.cpu.data           54                       # Number of read requests responded to by this memory
system.realview.bootmem.num_reads::total         3805                       # Number of read requests responded to by this memory
system.realview.bootmem.bw_read::.cpu.inst      5872173                       # Total read bandwidth from this memory (bytes/s)
system.realview.bootmem.bw_read::.cpu.data        84537                       # Total read bandwidth from this memory (bytes/s)
system.realview.bootmem.bw_read::total        5956709                       # Total read bandwidth from this memory (bytes/s)
system.realview.bootmem.bw_inst_read::.cpu.inst      5872173                       # Instruction read bandwidth from this memory (bytes/s)
system.realview.bootmem.bw_inst_read::total      5872173                       # Instruction read bandwidth from this memory (bytes/s)
system.realview.bootmem.bw_total::.cpu.inst      5872173                       # Total bandwidth to/from this memory (bytes/s)
system.realview.bootmem.bw_total::.cpu.data        84537                       # Total bandwidth to/from this memory (bytes/s)
[...]
system.cpu.icache.ReadReq_accesses::total      1336946                       # number of ReadReq accesses(hits+misses)
system.cpu.icache.ReadReq_miss_rate::.cpu.inst     0.002806                       # miss rate for ReadReq accesses
system.cpu.icache.ReadReq_miss_rate::total     0.002806                       # miss rate for ReadReq accesses
system.cpu.icache.ReadReq_avg_miss_latency::.cpu.inst 43284.457478                       # average ReadReq miss latency
system.cpu.icache.ReadReq_avg_miss_latency::total 43284.457478                       # average ReadReq miss latency
system.cpu.icache.ReadReq_mshr_misses::.cpu.inst         3751                       # number of ReadReq MSHR misses
system.cpu.icache.ReadReq_mshr_misses::total         3751                       # number of ReadReq MSHR misses
system.cpu.icache.ReadReq_mshr_miss_latency::.cpu.inst    156673000                       # number of ReadReq MSHR miss cycles
system.cpu.icache.ReadReq_mshr_miss_latency::total    156673000                       # number of ReadReq MSHR miss cycles
system.cpu.icache.ReadReq_mshr_miss_rate::.cpu.inst     0.002806                       # mshr miss rate for ReadReq accesses
system.cpu.icache.ReadReq_mshr_miss_rate::total     0.002806                       # mshr miss rate for ReadReq accesses
system.cpu.icache.ReadReq_avg_mshr_miss_latency::.cpu.inst 41768.328446                       # average ReadReq mshr miss latency
system.cpu.icache.ReadReq_avg_mshr_miss_latency::total 41768.328446                       # average ReadReq mshr miss latency
system.cpu.icache.tags.pwrStateResidencyTicks::UNDEFINED 145816381875                       # Cumulative time (in ticks) in various power states
system.cpu.icache.tags.tagsinuse           464.862363                       # Cycle average of tags in use
system.cpu.icache.tags.total_refs            39862689                       # Total number of references to valid blocks.
system.cpu.icache.tags.sampled_refs              4048                       # Sample count of references to valid blocks.
system.cpu.icache.tags.avg_refs           9847.502223                       # Average number of references to valid blocks.
system.cpu.icache.tags.warmup_cycle                 0                       # Cycle when the warmup percentage was hit.
system.cpu.icache.tags.occ_blocks::.cpu.inst   464.862363                       # Average occupied blocks per requestor
system.cpu.icache.tags.occ_percent::.cpu.inst     0.907934                       # Average percentage of cache occupancy
system.cpu.icache.tags.occ_percent::total     0.907934                       # Average percentage of cache occupancy
system.cpu.icache.tags.occ_task_id_blocks::1024          467                       # Occupied blocks per task id
system.cpu.icache.tags.age_task_id_blocks_1024::0            2                       # Occupied blocks per task id
system.cpu.icache.tags.age_task_id_blocks_1024::1            1                       # Occupied blocks per task id
system.cpu.icache.tags.age_task_id_blocks_1024::2           13                       # Occupied blocks per task id
system.cpu.icache.tags.age_task_id_blocks_1024::3           38                       # Occupied blocks per task id
system.cpu.icache.tags.age_task_id_blocks_1024::4          413                       # Occupied blocks per task id
system.cpu.icache.tags.occ_task_id_percent::1024     0.912109                       # Percentage of cache occupancy per task id
system.cpu.icache.tags.tag_accesses           2677643                       # Number of tag accesses
system.cpu.icache.tags.data_accesses          2677643                       # Number of data accesses
system.cpu.dtb.walker.pwrStateResidencyTicks::UNDEFINED 145816381875                       # Cumulative time (in ticks) in various power states
system.cpu.dtb.stage2_mmu.stage2_tlb.walker.pwrStateResidencyTicks::UNDEFINED 145816381875                       # Cumulative time (in ticks) in various power states
system.cpu.dcache.pwrStateResidencyTicks::UNDEFINED 145816381875                       # Cumulative time (in ticks) in various power states
system.cpu.dcache.demand_hits::.cpu.data      1136949                       # number of demand (read+write) hits
system.cpu.dcache.demand_hits::total          1136949                       # number of demand (read+write) hits
system.cpu.dcache.overall_hits::.cpu.data      1136949                       # number of overall hits
system.cpu.dcache.overall_hits::total         1136949                       # number of overall hits
system.cpu.dcache.demand_misses::.cpu.data         4983                       # number of demand (read+write) misses
system.cpu.dcache.demand_misses::total           4983                       # number of demand (read+write) misses
system.cpu.dcache.overall_misses::.cpu.data         4983                       # number of overall misses
system.cpu.dcache.overall_misses::total          4983                       # number of overall misses
system.cpu.dcache.demand_miss_latency::.cpu.data    377194875                       # number of demand (read+write) miss cycles
system.cpu.dcache.demand_miss_latency::total    377194875                       # number of demand (read+write) miss cycles
system.cpu.dcache.overall_miss_latency::.cpu.data    377194875                       # number of overall miss cycles
system.cpu.dcache.overall_miss_latency::total    377194875                       # number of overall miss cycles
system.cpu.dcache.demand_accesses::.cpu.data      1141932                       # number of demand (read+write) accesses
system.cpu.dcache.demand_accesses::total      1141932                       # number of demand (read+write) accesses
system.cpu.dcache.overall_accesses::.cpu.data      1141932                       # number of overall (read+write) accesses
system.cpu.dcache.overall_accesses::total      1141932                       # number of overall (read+write) accesses
system.cpu.dcache.demand_miss_rate::.cpu.data     0.004364                       # miss rate for demand accesses
system.cpu.dcache.demand_miss_rate::total     0.004364                       # miss rate for demand accesses
system.cpu.dcache.overall_miss_rate::.cpu.data     0.004364                       # miss rate for overall accesses
system.cpu.dcache.overall_miss_rate::total     0.004364                       # miss rate for overall accesses
system.cpu.dcache.demand_avg_miss_latency::.cpu.data 75696.342565                       # average overall miss latency
system.cpu.dcache.demand_avg_miss_latency::total 75696.342565                       # average overall miss latency
system.cpu.dcache.overall_avg_miss_latency::.cpu.data 75696.342565                       # average overall miss latency
system.cpu.dcache.overall_avg_miss_latency::total 75696.342565                       # average overall miss latency
system.cpu.dcache.blocked_cycles::no_mshrs            0                       # number of cycles access was blocked
system.cpu.dcache.blocked_cycles::no_targets            0                       # number of cycles access was blocked
system.cpu.dcache.blocked::no_mshrs                 0                       # number of cycles access was blocked
system.cpu.dcache.blocked::no_targets               0                       # number of cycles access was blocked
system.cpu.dcache.avg_blocked_cycles::no_mshrs          nan                       # average number of cycles each access was blocked
system.cpu.dcache.avg_blocked_cycles::no_targets          nan                       # average number of cycles each access was blocked
system.cpu.dcache.writebacks::.writebacks         2754                       # number of writebacks
system.cpu.dcache.writebacks::total              2754                       # number of writebacks
system.cpu.dcache.demand_mshr_hits::.cpu.data         1127                       # number of demand (read+write) MSHR hits
system.cpu.dcache.demand_mshr_hits::total         1127                       # number of demand (read+write) MSHR hits
system.cpu.dcache.overall_mshr_hits::.cpu.data         1127                       # number of overall MSHR hits
system.cpu.dcache.overall_mshr_hits::total         1127                       # number of overall MSHR hits
system.cpu.dcache.demand_mshr_misses::.cpu.data         3856                       # number of demand (read+write) MSHR misses
system.cpu.dcache.demand_mshr_misses::total         3856                       # number of demand (read+write) MSHR misses
system.cpu.dcache.overall_mshr_misses::.cpu.data         3856                       # number of overall MSHR misses
system.cpu.dcache.overall_mshr_misses::total         3856                       # number of overall MSHR misses
system.cpu.dcache.overall_mshr_uncacheable_misses::.cpu.data        35978                       # number of overall MSHR uncacheable misses
system.cpu.dcache.overall_mshr_uncacheable_misses::total        35978                       # number of overall MSHR uncacheable misses
system.cpu.dcache.demand_mshr_miss_latency::.cpu.data    290402375                       # number of demand (read+write) MSHR miss cycles
system.cpu.dcache.demand_mshr_miss_latency::total    290402375                       # number of demand (read+write) MSHR miss cycles
system.cpu.dcache.overall_mshr_miss_latency::.cpu.data    290402375                       # number of overall MSHR miss cycles
system.cpu.dcache.overall_mshr_miss_latency::total    290402375                       # number of overall MSHR miss cycles
system.cpu.dcache.overall_mshr_uncacheable_latency::.cpu.data     79725125                       # number of overall MSHR uncacheable cycles
system.cpu.dcache.overall_mshr_uncacheable_latency::total     79725125                       # number of overall MSHR uncacheable cycles
system.cpu.dcache.demand_mshr_miss_rate::.cpu.data     0.003377                       # mshr miss rate for demand accesses
system.cpu.dcache.demand_mshr_miss_rate::total     0.003377                       # mshr miss rate for demand accesses
system.cpu.dcache.overall_mshr_miss_rate::.cpu.data     0.003377                       # mshr miss rate for overall accesses
system.cpu.dcache.overall_mshr_miss_rate::total     0.003377                       # mshr miss rate for overall accesses
system.cpu.dcache.demand_avg_mshr_miss_latency::.cpu.data 75311.819243                       # average overall mshr miss latency
system.cpu.dcache.demand_avg_mshr_miss_latency::total 75311.819243                       # average overall mshr miss latency
system.cpu.dcache.overall_avg_mshr_miss_latency::.cpu.data 75311.819243                       # average overall mshr miss latency
system.cpu.dcache.overall_avg_mshr_miss_latency::total 75311.819243                       # average overall mshr miss latency
system.cpu.dcache.overall_avg_mshr_uncacheable_latency::.cpu.data  2215.940992                       # average overall mshr uncacheable latency
system.cpu.dcache.overall_avg_mshr_uncacheable_latency::total  2215.940992                       # average overall mshr uncacheable latency
system.cpu.dcache.replacements                   3857                       # number of replacements
system.cpu.dcache.ReadReq_hits::.cpu.data       709159                       # number of ReadReq hits
system.cpu.dcache.ReadReq_hits::total          709159                       # number of ReadReq hits
system.cpu.dcache.ReadReq_misses::.cpu.data         2643                       # number of ReadReq misses
system.cpu.dcache.ReadReq_misses::total          2643                       # number of ReadReq misses
system.cpu.dcache.ReadReq_miss_latency::.cpu.data    207782125                       # number of ReadReq miss cycles
system.cpu.dcache.ReadReq_miss_latency::total    207782125                       # number of ReadReq miss cycles
system.cpu.dcache.ReadReq_accesses::.cpu.data       711802                       # number of ReadReq accesses(hits+misses)
system.cpu.dcache.ReadReq_accesses::total       711802                       # number of ReadReq accesses(hits+misses)
system.cpu.dcache.ReadReq_miss_rate::.cpu.data     0.003713                       # miss rate for ReadReq accesses
system.cpu.dcache.ReadReq_miss_rate::total     0.003713                       # miss rate for ReadReq accesses
system.cpu.dcache.ReadReq_avg_miss_latency::.cpu.data 78616.013999                       # average ReadReq miss latency
system.cpu.dcache.ReadReq_avg_miss_latency::total 78616.013999                       # average ReadReq miss latency
system.cpu.dcache.ReadReq_mshr_hits::.cpu.data           16                       # number of ReadReq MSHR hits
system.cpu.dcache.ReadReq_mshr_hits::total           16                       # number of ReadReq MSHR hits
system.cpu.dcache.ReadReq_mshr_misses::.cpu.data         2627                       # number of ReadReq MSHR misses
system.cpu.dcache.ReadReq_mshr_misses::total         2627                       # number of ReadReq MSHR misses
system.cpu.dcache.ReadReq_mshr_uncacheable::.cpu.data         3671                       # number of ReadReq MSHR uncacheable
system.cpu.dcache.ReadReq_mshr_uncacheable::total         3671                       # number of ReadReq MSHR uncacheable
system.cpu.dcache.ReadReq_mshr_miss_latency::.cpu.data    202799125                       # number of ReadReq MSHR miss cycles
system.cpu.dcache.ReadReq_mshr_miss_latency::total    202799125                       # number of ReadReq MSHR miss cycles
system.cpu.dcache.ReadReq_mshr_uncacheable_latency::.cpu.data     79725125                       # number of ReadReq MSHR uncacheable cycles
system.cpu.dcache.ReadReq_mshr_uncacheable_latency::total     79725125                       # number of ReadReq MSHR uncacheable cycles
system.cpu.dcache.ReadReq_mshr_miss_rate::.cpu.data     0.003691                       # mshr miss rate for ReadReq accesses
system.cpu.dcache.ReadReq_mshr_miss_rate::total     0.003691                       # mshr miss rate for ReadReq accesses
system.cpu.dcache.ReadReq_avg_mshr_miss_latency::.cpu.data 77197.992006                       # average ReadReq mshr miss latency
system.cpu.dcache.ReadReq_avg_mshr_miss_latency::total 77197.992006                       # average ReadReq mshr miss latency
system.cpu.dcache.ReadReq_avg_mshr_uncacheable_latency::.cpu.data 21717.549714                       # average ReadReq mshr uncacheable latency
system.cpu.dcache.ReadReq_avg_mshr_uncacheable_latency::total 21717.549714                       # average ReadReq mshr uncacheable latency
system.cpu.dcache.WriteReq_hits::.cpu.data       427790                       # number of WriteReq hits
system.cpu.dcache.WriteReq_hits::total         427790                       # number of WriteReq hits
system.cpu.dcache.WriteReq_misses::.cpu.data         2340                       # number of WriteReq misses
system.cpu.dcache.WriteReq_misses::total         2340                       # number of WriteReq misses
system.cpu.dcache.WriteReq_miss_latency::.cpu.data    169412750                       # number of WriteReq miss cycles
system.cpu.dcache.WriteReq_miss_latency::total    169412750                       # number of WriteReq miss cycles
system.cpu.dcache.WriteReq_accesses::.cpu.data       430130                       # number of WriteReq accesses(hits+misses)
system.cpu.dcache.WriteReq_accesses::total       430130                       # number of WriteReq accesses(hits+misses)
system.cpu.dcache.WriteReq_miss_rate::.cpu.data     0.005440                       # miss rate for WriteReq accesses
system.cpu.dcache.WriteReq_miss_rate::total     0.005440                       # miss rate for WriteReq accesses
system.cpu.dcache.WriteReq_avg_miss_latency::.cpu.data 72398.611111                       # average WriteReq miss latency
system.cpu.dcache.WriteReq_avg_miss_latency::total 72398.611111                       # average WriteReq miss latency
system.cpu.dcache.WriteReq_mshr_hits::.cpu.data         1111                       # number of WriteReq MSHR hits
system.cpu.dcache.WriteReq_mshr_hits::total         1111                       # number of WriteReq MSHR hits
system.cpu.dcache.WriteReq_mshr_misses::.cpu.data         1229                       # number of WriteReq MSHR misses
system.cpu.dcache.WriteReq_mshr_misses::total         1229                       # number of WriteReq MSHR misses
system.cpu.dcache.WriteReq_mshr_uncacheable::.cpu.data        32307                       # number of WriteReq MSHR uncacheable
system.cpu.dcache.WriteReq_mshr_uncacheable::total        32307                       # number of WriteReq MSHR uncacheable
system.cpu.dcache.WriteReq_mshr_miss_latency::.cpu.data     87603250                       # number of WriteReq MSHR miss cycles
system.cpu.dcache.WriteReq_mshr_miss_latency::total     87603250                       # number of WriteReq MSHR miss cycles
system.cpu.dcache.WriteReq_mshr_miss_rate::.cpu.data     0.002857                       # mshr miss rate for WriteReq accesses
system.cpu.dcache.WriteReq_mshr_miss_rate::total     0.002857                       # mshr miss rate for WriteReq accesses
system.cpu.dcache.WriteReq_avg_mshr_miss_latency::.cpu.data 71280.105777                       # average WriteReq mshr miss latency
system.cpu.dcache.WriteReq_avg_mshr_miss_latency::total 71280.105777                       # average WriteReq mshr miss latency
system.cpu.dcache.tags.pwrStateResidencyTicks::UNDEFINED 145816381875                       # Cumulative time (in ticks) in various power states
system.cpu.dcache.tags.tagsinuse                  512                       # Cycle average of tags in use
system.cpu.dcache.tags.total_refs             1144683                       # Total number of references to valid blocks.
system.cpu.dcache.tags.sampled_refs              4369                       # Sample count of references to valid blocks.
system.cpu.dcache.tags.avg_refs            262.001144                       # Average number of references to valid blocks.
system.cpu.dcache.tags.warmup_cycle                 0                       # Cycle when the warmup percentage was hit.
system.cpu.dcache.tags.occ_blocks::.cpu.data          512                       # Average occupied blocks per requestor
system.cpu.dcache.tags.occ_percent::.cpu.data            1                       # Average percentage of cache occupancy
system.cpu.dcache.tags.occ_percent::total            1                       # Average percentage of cache occupancy
system.cpu.dcache.tags.occ_task_id_blocks::1024          512                       # Occupied blocks per task id
system.cpu.dcache.tags.age_task_id_blocks_1024::0            8                       # Occupied blocks per task id
system.cpu.dcache.tags.age_task_id_blocks_1024::1            3                       # Occupied blocks per task id
system.cpu.dcache.tags.age_task_id_blocks_1024::2           68                       # Occupied blocks per task id
system.cpu.dcache.tags.age_task_id_blocks_1024::3          362                       # Occupied blocks per task id
system.cpu.dcache.tags.age_task_id_blocks_1024::4           71                       # Occupied blocks per task id
system.cpu.dcache.tags.occ_task_id_percent::1024            1                       # Percentage of cache occupancy per task id
system.cpu.dcache.tags.tag_accesses           4571585                       # Number of tag accesses
system.cpu.dcache.tags.data_accesses          4571585                       # Number of data accesses
system.cpu.itb.walker.pwrStateResidencyTicks::UNDEFINED 145816381875                       # Cumulative time (in ticks) in various power states
system.cpu.itb.stage2_mmu.stage2_tlb.walker.pwrStateResidencyTicks::UNDEFINED 145816381875                       # Cumulative time (in ticks) in various power states

---------- End Simulation Statistics   ----------
