gem5 Simulator System.  http://gem5.org
gem5 is copyrighted software; use the --copyright option for details.

gem5 compiled Jun 12 2023 18:40:01
gem5 started Jul 14 2023 14:17:04
gem5 executing on node4x10a.cs.rochester.edu, pid 53453
command line: /u/sgupta45/gem5-SALAM/build/ARM/gem5_bus.opt --debug-flags=HWACC,CommInterface,LLVMInterface,StreamDma,NoncoherentDma,TickTimer,SchedulerStats --outdir=BM_ARM_OUT/comb_2/canny_1_deblur_0_gru_1_harris_0_lstm_0_GEDF_N configs/SALAM/scheduler.py --mem-size=4GB --mem-type=LPDDR5_6400_1x16_BG_BL32 --kernel=/u/sgupta45/gem5-SALAM/benchmarks/scheduler/sw/bin_comb_2/canny_1_deblur_0_gru_1_harris_0_lstm_0_GEDF_N.elf --vans-config-path=/u/sgupta45/VANS/config --disk-image=/u/sgupta45/gem5-SALAM/baremetal/common/fake.iso --machine-type=VExpress_GEM5_V1 --dtb-file=none --bare-metal --cpu-type=ex5_LITTLE --cpu-clock=1.6GHz --accpath=/u/sgupta45/gem5-SALAM/benchmarks --caches --cacheline_size=64 --l1d_size=32kB --l1d_assoc=4 --l1i_size=32kB --l1i_assoc=2

Global frequency set at 1000000000000 ticks per second
Cycle Counts Loaded!
Cycle Counts Loaded!
Cycle Counts Loaded!
Cycle Counts Loaded!
Cycle Counts Loaded!
Cycle Counts Loaded!
Cycle Counts Loaded!
Cycle Counts Loaded!
Cycle Counts Loaded!
Cycle Counts Loaded!
Cycle Counts Loaded!
**** REAL SIMULATION ****
3520570625: global: Timer #2 started at tick 3520570625
3521042500: global: Timer #2 stopped at tick 3521042500. Duration: 471875
3525423125: global: Timer #2 started at tick 3525423125
3525468750: global: Timer #2 stopped at tick 3525468750. Duration: 45625
3568300875: system.acctest.elem_matrix0_dma: SRC:0x000000008222e400, DST:0x0000000024000020, LEN:65536
3573344000: system.acctest.isp0_dma: SRC:0x0000000082018d40, DST:0x0000000027000020, LEN:16900
3573732500: global: Number of accelerators running = 2
3578030000: system.acctest.isp0_dma: Transfer completed in 4.686 us
3578616875: global: Timer #0 started at tick 3578616875
3580580000: global: Timer #0 stopped at tick 3580580000. Duration: 1963125
3580598750: global: Number of accelerators running = 2
3581763875: system.acctest.elem_matrix0_dma: Transfer completed in 13.463 us
3581901250: global: Timer #0 started at tick 3581901250
3595985875: system.acctest.elem_matrix0_dma: SRC:0x000000008212e240, DST:0x0000000024010020, LEN:65536
3596283750: global: Timer #0 stopped at tick 3596283750. Duration: 14382500
3596300000: global: Number of accelerators running = 2
3607935875: system.acctest.elem_matrix0_dma: Transfer completed in 11.95 us
3608011250: global: Timer #0 started at tick 3608011250
3609400000: global: Timer #0 stopped at tick 3609400000. Duration: 1388750
3609416250: global: Number of accelerators running = 2
********************************************************************************
system.acctest.isp0.compute
   ========= Performance Analysis =============
   Setup Time:                      0.407464seconds
   Simulation Time:                 1084.74seconds
   System Clock:                    1GHz
   Transistor Latency:              1ns
   Runtime:                         34882 cycles
   Runtime:                         34.882 us
   Stalls:                          1 cycles
   Executed Nodes:                  34880 cycles

********************************************************************************
   ========= Performance Analysis =================
   Setup Time:                      4.07464e+08ns
   Simulation Time:                 1.08474e+12ns
   System Clock:                    1GHz
   Transistor Latency:              0ns
   Runtime:                         34882 cycles
   Runtime:                         3.4882e-06 seconds
   Stalls:                          1 cycles
       Load Only:                   0 cycles
       Store Only:                  1 cycles
       Compute Only:                0 cycles
       Compute & Store:             0 cycles
       Load & Store:                0 cycles
       Load & Compute:              0 cycles
       Load & Compute & Store:      0 cycles
   Executed Nodes:                  34880 cycles
       Load Only:                   0 cycles
       Store Only:                  1 cycles
       Compute Only:                3453 cycles
       Compute & Store:             19014 cycles
       Load & Store:                0 cycles
       Load & Compute:              2467 cycles
       Load & Compute & Store:      9945 cycles

   ========= Runtime FU's ========= (Max | Avg) ===
   Counter FU's:                      10 | 0.118075
   Integer Add/Sub FU's:              76 | 0.082082
   Integer Mul/Div FU's:              11 | 0.043888
   Integer Shifter FU's:              42 | 0.055974
   Integer Bitwise FU's:               4 | 0.059443
   Floating Point Float Add/Sub:      53 | 0.116839
   Floating Point Double Add/Sub:      0 | 0.000000
   Floating Point Float Mul/Div:      76 | 0.625626
   Floating Point Double Mul/Div:      0 | 0.000000
   0 Cycle Compare FU's:              85 | 0.664984
   GEP Instruction FU's:              33 | 0.117424
   Type Conversion FU's:             110 | 0.379700

   ========= Static FU's ==========================
   Counter FU's:                    0
   Integer Add/Sub FU's:            0
   Integer Mul/Div FU's:            0
   Integer Shifter FU's:            0
   Integer Bitwise FU's:            0
   Floating Point Float Add/Sub:    0
   Floating Point Double Add/Sub:   0
   Floating Point Float Mul/Div:    0
   Floating Point Double Mul/Div:   0
   0 Cycle Compare FU's:            0
   GEP Instruction FU's:            0
   Type Conversion FU's:            0
   Other:                           0

   ========= Pipeline Register Usage =============
   Total Number of Registers:       1620
   Max Register Usage Per Cycle:    151
   Avg Register Usage Per Cycle:    58.744711
   Avg Register Size (Bytes):       5.073357

   ========= Memory Configuration =================
   Cache Bus Ports:                 0
   Shared Cache Size:               0kB
   Local Bus Ports:                 0
   Private SPM Size:                112kB
   Private Read Ports:              0
   Private Write Ports:             0
   Private Read Bus Width:          64
   Private Write Bus Width:         64
       Memory Reads:                0
       Memory Writes:               0
   ========= Power Analysis ======================
   FU Leakage Power:                1.637787 mW 
   FU Dynamic Power:                9.655087 mW 
   FU Total Power:                  11.292874 mW 

   Registers Leakage Power:          0.021654 mW 
   Registers Dynamic Power:          3.085961 mW 
       Register Reads (Bits):        2049133
       Register Writes (Bits):       2049168
   Registers Total Power:            3.107615 mW

   SPM Leakage Power:               0.061081 mW
   SPM Read Dynamic Power:          11.103730 mW
   SPM Write Dynamic Power:         7.385230 mW
   SPM Total Power:                 18.550041 mW

   Cache Leakage Power:             0.000000 mW
   Cache Read Dynamic Power:        0.000000 mW
   Cache Write Dynamic Power:       0.000000 mW
   Cache Total Power:               0.000000 mW

   Accelerator Power:               14.400490 mW
   Accelerator Power (SPM):         32.950531 mW
   Accelerator Power (Cache):       14.400490 mW

   ========= Area Analysis =======================
   FU Area:                         176023.796875 um^2 (0.176024 mm^2)
   Register Area:                   1760.064941 um^2 (0.001760 mm^2)
   SPM Area:                        2165.394891 um^2 (0.002165 mm^2)
   Cache Area:                      0.000000 um^2 (0.000000 mm^2)

   Accelerator Area:                177783.859375 um^2 (0.177784 mm^2)
   Accelerator Area (SPM):          179949.254266 um^2 (0.179949 mm^2)
   Accelerator Area (Cache):        177783.859375 um^2 (0.177784 mm^2)

   ========= SPM Resizing  =======================
   SPM Optimized Leakage Power:     0.005964 mW
   SPM Opt Area:                    422.108128 um^2

3614953750: global: Timer #0 started at tick 3614953750
3615420625: global: Timer #2 started at tick 3615420625
3615630000: global: Timer #2 stopped at tick 3615630000. Duration: 209375
3616398125: global: DAG ID = 0
3616417500: global: Node ID = 0
3616435625: global: Node deadline difference = -13501
3616497500: global: Predicted memory time / byte = 0 us/byte
3616515625: global: Predicted memory time = 0 us
3616533750: global: Predicted memory time / byte = 0 us/byte
3616551875: global: Predicted memory time = 0 us
3616570000: global: Predicted memory time / byte = 0 us/byte
3616631250: global: Predicted memory time = 0 us
3616649375: global: Predicted memory time / byte = 0 us/byte
3616667500: global: Predicted memory time = 0 us
3616685625: global: Predicted memory access size = 0
3616703750: global: Predicted memory access size = 16900
3616766250: global: Predicted memory access size = 0
3616785000: global: Predicted memory access size = 0
3617970875: system.acctest.grayscale0_dma: SRC:0x0000000027004224, DST:0x0000000025000020, LEN:49152
3618526250: global: Timer #0 stopped at tick 3618526250. Duration: 3572500
3618542500: global: Number of accelerators running = 2
********************************************************************************
system.acctest.elem_matrix0.compute
   ========= Performance Analysis =============
   Setup Time:                      8.514242seconds
   Simulation Time:                 474.634550seconds
   System Clock:                    1.000000GHz
   Transistor Latency:              1ns
   Runtime:                         10932 cycles
   Runtime:                         10.932000 us
   Stalls:                          0 cycles
   Executed Nodes:                  10931 cycles

********************************************************************************
   ========= Performance Analysis =================
   Setup Time:                      8514242385.999999ns
   Simulation Time:                 474634550256.000000ns
   System Clock:                    1.000000GHz
   Transistor Latency:              0ns
   Runtime:                         10932 cycles
   Runtime:                         0.000001 seconds
   Stalls:                          0 cycles
       Load Only:                   0 cycles
       Store Only:                  0 cycles
       Compute Only:                0 cycles
       Compute & Store:             0 cycles
       Load & Store:                0 cycles
       Load & Compute:              0 cycles
       Load & Compute & Store:      0 cycles
   Executed Nodes:                  10931 cycles
       Load Only:                   0 cycles
       Store Only:                  5 cycles
       Compute Only:                1 cycles
       Compute & Store:             21 cycles
       Load & Store:                0 cycles
       Load & Compute:              7 cycles
       Load & Compute & Store:      10897 cycles

   ========= Runtime FU's ========= (Max | Avg) ===
   Counter FU's:                      32 | 0.046838
   Integer Add/Sub FU's:               0 | 0.000000
   Integer Mul/Div FU's:               0 | 0.000000
   Integer Shifter FU's:               0 | 0.000000
   Integer Bitwise FU's:               1 | 0.000091
   Floating Point Float Add/Sub:      34 | 0.044252
   Floating Point Double Add/Sub:      0 | 0.000000
   Floating Point Float Mul/Div:       0 | 0.000000
   Floating Point Double Mul/Div:      0 | 0.000000
   0 Cycle Compare FU's:             102 | 0.046974
   GEP Instruction FU's:              96 | 0.046835
   Type Conversion FU's:               7 | 0.006782

   ========= Static FU's ==========================
   Counter FU's:                    0
   Integer Add/Sub FU's:            0
   Integer Mul/Div FU's:            0
   Integer Shifter FU's:            0
   Integer Bitwise FU's:            0
   Floating Point Float Add/Sub:    0
   Floating Point Double Add/Sub:   0
   Floating Point Float Mul/Div:    0
   Floating Point Double Mul/Div:   0
   0 Cycle Compare FU's:            0
   GEP Instruction FU's:            0
   Type Conversion FU's:            0
   Other:                           0

   ========= Pipeline Register Usage =============
   Total Number of Registers:       5641
   Max Register Usage Per Cycle:    138
   Avg Register Usage Per Cycle:    12.130992
   Avg Register Size (Bytes):       5.980606

   ========= Memory Configuration =================
   Cache Bus Ports:                 0
   Shared Cache Size:               0kB
   Local Bus Ports:                 0
   Private SPM Size:                256kB
   Private Read Ports:              0
   Private Write Ports:             0
   Private Read Bus Width:          64
   Private Write Bus Width:         64
       Memory Reads:                0
       Memory Writes:               0
   ========= Power Analysis ======================
   FU Leakage Power:                0.519269 mW 
   FU Dynamic Power:                0.154621 mW 
   FU Total Power:                  0.673890 mW 

   Registers Leakage Power:          0.005281 mW 
   Registers Dynamic Power:          0.015326 mW 
       Register Reads (Bits):        132616
       Register Writes (Bits):       133658
   Registers Total Power:            0.020607 mW

   SPM Leakage Power:               0.104100 mW
   SPM Read Dynamic Power:          1.997266 mW
   SPM Write Dynamic Power:         0.953321 mW
   SPM Total Power:                 3.054688 mW

   Cache Leakage Power:             0.000000 mW
   Cache Read Dynamic Power:        0.000000 mW
   Cache Write Dynamic Power:       0.000000 mW
   Cache Total Power:               0.000000 mW

   Accelerator Power:               0.694497 mW
   Accelerator Power (SPM):         3.749184 mW
   Accelerator Power (Cache):       0.694497 mW

   ========= Area Analysis =======================
   FU Area:                         70212.562500 um^2 (0.070213 mm^2)
   Register Area:                   429.271088 um^2 (0.000429 mm^2)
   SPM Area:                        2177.365505 um^2 (0.002177 mm^2)
   Cache Area:                      0.000000 um^2 (0.000000 mm^2)

   Accelerator Area:                70641.835938 um^2 (0.070642 mm^2)
   Accelerator Area (SPM):          72819.201442 um^2 (0.072819 mm^2)
   Accelerator Area (Cache):        70641.835938 um^2 (0.070642 mm^2)

   ========= SPM Resizing  =======================
   SPM Optimized Leakage Power:     0.004248 mW
   SPM Opt Area:                    178.524902 um^2

3620161875: global: Timer #0 started at tick 3620161875
3620468750: global: Timer #2 started at tick 3620468750
3620511250: global: Timer #2 stopped at tick 3620511250. Duration: 42500
3620705625: global: Timer #2 started at tick 3620705625
3620956875: global: Timer #2 stopped at tick 3620956875. Duration: 251250
3625673875: system.acctest.grayscale0_dma: Transfer completed in 7.703 us
3634478750: system.acctest.elem_matrix0_dma: SRC:0x0000000024020020, DST:0x000000008213e240, LEN:65536
3634921250: global: Timer #0 stopped at tick 3634921250. Duration: 14759375
3634937500: global: Number of accelerators running = 2
3635065625: global: Timer #0 started at tick 3635065625
3636071875: global: Timer #0 stopped at tick 3636071875. Duration: 1006250
3636088125: global: Number of accelerators running = 2
3640774750: system.acctest.elem_matrix0_dma: Transfer completed in 6.296 us
3640860625: global: Timer #0 started at tick 3640860625
3641309375: global: DAG ID = 1
3641373125: global: Node ID = 0
3641447500: global: Node deadline difference = -2233
3641465625: global: Predicted memory time / byte = 0 us/byte
3641483750: global: Predicted memory time = 0 us
3641503750: global: Predicted memory time / byte = 0 us/byte
3641521875: global: Predicted memory time = 0 us
3641540000: global: Predicted memory time / byte = 0 us/byte
3641558125: global: Predicted memory time = 0 us
3641576250: global: Predicted memory time / byte = 0 us/byte
3641594375: global: Predicted memory time = 0 us
3641614375: global: Predicted memory access size = 0
3641632500: global: Predicted memory access size = 131072
3641650625: global: Predicted memory access size = 0
3641668750: global: Predicted memory access size = 65536
********************************************************************************
system.acctest.grayscale0.compute
   ========= Performance Analysis =============
   Setup Time:                      0.011866seconds
   Simulation Time:                 336.303801seconds
   System Clock:                    1.000000GHz
   Transistor Latency:              1ns
   Runtime:                         10263 cycles
   Runtime:                         10.263000 us
   Stalls:                          1 cycles
   Executed Nodes:                  10261 cycles

********************************************************************************
   ========= Performance Analysis =================
   Setup Time:                      11865816.000000ns
   Simulation Time:                 336303800600.000000ns
   System Clock:                    1.000000GHz
   Transistor Latency:              0ns
   Runtime:                         10263 cycles
   Runtime:                         0.000001 seconds
   Stalls:                          1 cycles
       Load Only:                   0 cycles
       Store Only:                  1 cycles
       Compute Only:                0 cycles
       Compute & Store:             0 cycles
       Load & Store:                0 cycles
       Load & Compute:              0 cycles
       Load & Compute & Store:      0 cycles
   Executed Nodes:                  10261 cycles
       Load Only:                   0 cycles
       Store Only:                  1 cycles
       Compute Only:                88 cycles
       Compute & Store:             344 cycles
       Load & Store:                0 cycles
       Load & Compute:              1981 cycles
       Load & Compute & Store:      7847 cycles

   ========= Runtime FU's ========= (Max | Avg) ===
   Counter FU's:                      24 | 0.199556
   Integer Add/Sub FU's:               0 | 0.000000
   Integer Mul/Div FU's:               8 | 0.199552
   Integer Shifter FU's:               0 | 0.000000
   Integer Bitwise FU's:               1 | 0.000097
   Floating Point Float Add/Sub:      49 | 0.114264
   Floating Point Double Add/Sub:      0 | 0.000000
   Floating Point Float Mul/Div:      42 | 0.114129
   Floating Point Double Mul/Div:      0 | 0.000000
   0 Cycle Compare FU's:               9 | 0.066626
   GEP Instruction FU's:              36 | 0.177452
   Type Conversion FU's:              76 | 0.401969

   ========= Static FU's ==========================
   Counter FU's:                    0
   Integer Add/Sub FU's:            0
   Integer Mul/Div FU's:            0
   Integer Shifter FU's:            0
   Integer Bitwise FU's:            0
   Floating Point Float Add/Sub:    0
   Floating Point Double Add/Sub:   0
   Floating Point Float Mul/Div:    0
   Floating Point Double Mul/Div:   0
   0 Cycle Compare FU's:            0
   GEP Instruction FU's:            0
   Type Conversion FU's:            0
   Other:                           0

   ========= Pipeline Register Usage =============
   Total Number of Registers:       235
   Max Register Usage Per Cycle:    90
   Avg Register Usage Per Cycle:    33.924291
   Avg Register Size (Bytes):       5.841147

   ========= Memory Configuration =================
   Cache Bus Ports:                 0
   Shared Cache Size:               0kB
   Local Bus Ports:                 0
   Private SPM Size:                176kB
   Private Read Ports:              0
   Private Write Ports:             0
   Private Read Bus Width:          64
   Private Write Bus Width:         64
       Memory Reads:                0
       Memory Writes:               0
   ========= Power Analysis ======================
   FU Leakage Power:                1.178269 mW 
   FU Dynamic Power:                0.617392 mW 
   FU Total Power:                  1.795662 mW 

   Registers Leakage Power:          0.014185 mW 
   Registers Dynamic Power:          0.101057 mW 
       Register Reads (Bits):        348165
       Register Writes (Bits):       348168
   Registers Total Power:            0.115242 mW

   SPM Leakage Power:               0.089881 mW
   SPM Read Dynamic Power:          6.997296 mW
   SPM Write Dynamic Power:         2.062375 mW
   SPM Total Power:                 9.149552 mW

   Cache Leakage Power:             0.000000 mW
   Cache Read Dynamic Power:        0.000000 mW
   Cache Write Dynamic Power:       0.000000 mW
   Cache Total Power:               0.000000 mW

   Accelerator Power:               1.910904 mW
   Accelerator Power (SPM):         11.060456 mW
   Accelerator Power (Cache):       1.910904 mW

   ========= Area Analysis =======================
   FU Area:                         143348.187500 um^2 (0.143348 mm^2)
   Register Area:                   1152.968140 um^2 (0.001153 mm^2)
   SPM Area:                        3573.642862 um^2 (0.003574 mm^2)
   Cache Area:                      0.000000 um^2 (0.000000 mm^2)

   Accelerator Area:                144501.156250 um^2 (0.144501 mm^2)
   Accelerator Area (SPM):          148074.799112 um^2 (0.148075 mm^2)
   Accelerator Area (Cache):        144501.156250 um^2 (0.144501 mm^2)

   ========= SPM Resizing  =======================
   SPM Optimized Leakage Power:     0.003633 mW
   SPM Opt Area:                    364.024374 um^2

3655345875: system.acctest.elem_matrix0_dma: SRC:0x00000000820ee0c0, DST:0x0000000024000020, LEN:65536
3655557500: global: Timer #0 stopped at tick 3655557500. Duration: 14696875
3655573750: global: Number of accelerators running = 2
3655690000: global: Timer #0 started at tick 3655690000
3656045625: global: Timer #2 started at tick 3656045625
3656081875: global: Timer #2 stopped at tick 3656081875. Duration: 36250
3656343750: global: DAG ID = 0
3656357500: global: Node ID = 1
3656370625: global: Node deadline difference = -13498
3656383125: global: Predicted memory time / byte = 0 us/byte
3656395625: global: Predicted memory time = 0 us
3656408125: global: Predicted memory time / byte = 0 us/byte
3656420625: global: Predicted memory time = 0 us
3656433125: global: Predicted memory time / byte = 0 us/byte
3656445625: global: Predicted memory time = 0 us
3656458125: global: Predicted memory time / byte = 0 us/byte
3656470625: global: Predicted memory time = 0 us
3656483125: global: Predicted memory access size = 0
3656495625: global: Predicted memory access size = 49152
3656508125: global: Predicted memory access size = 0
3656520625: global: Predicted memory access size = 0
3658064000: system.acctest.convolution0_dma: SRC:0x000000002500c020, DST:0x0000000022000020, LEN:65536
3658478125: global: Timer #0 stopped at tick 3658478125. Duration: 2788125
3658494375: global: Number of accelerators running = 2
3667425875: system.acctest.elem_matrix0_dma: Transfer completed in 12.08 us
3667511875: global: Timer #0 started at tick 3667511875
3669170625: global: Timer #0 stopped at tick 3669170625. Duration: 1658750
3669186875: global: Number of accelerators running = 2
3672317000: system.acctest.convolution0_dma: Transfer completed in 14.253 us
3672413750: global: Timer #0 started at tick 3672413750
3673670875: system.acctest.convolution0_dma: SRC:0x0000000082039280, DST:0x0000000022030020, LEN:100
3673767875: system.acctest.convolution0_dma: Transfer completed in 0.097 us
3673910000: global: Timer #0 stopped at tick 3673910000. Duration: 1496250
3673926250: global: Number of accelerators running = 2
3674038125: global: Timer #0 started at tick 3674038125
3675421875: global: Timer #0 stopped at tick 3675421875. Duration: 1383750
3675438125: global: Number of accelerators running = 2
********************************************************************************
system.acctest.elem_matrix0.compute
   ========= Performance Analysis =============
   Setup Time:                      17.129925seconds
   Simulation Time:                 269.330007seconds
   System Clock:                    1.000000GHz
   Transistor Latency:              1ns
   Runtime:                         10932 cycles
   Runtime:                         10.932000 us
   Stalls:                          1 cycles
   Executed Nodes:                  10930 cycles

********************************************************************************
   ========= Performance Analysis =================
   Setup Time:                      17129924807.999998ns
   Simulation Time:                 269330007428.999969ns
   System Clock:                    1.000000GHz
   Transistor Latency:              0ns
   Runtime:                         10932 cycles
   Runtime:                         0.000001 seconds
   Stalls:                          1 cycles
       Load Only:                   0 cycles
       Store Only:                  1 cycles
       Compute Only:                0 cycles
       Compute & Store:             0 cycles
       Load & Store:                0 cycles
       Load & Compute:              0 cycles
       Load & Compute & Store:      0 cycles
   Executed Nodes:                  10930 cycles
       Load Only:                   0 cycles
       Store Only:                  4 cycles
       Compute Only:                1 cycles
       Compute & Store:             21 cycles
       Load & Store:                0 cycles
       Load & Compute:              6 cycles
       Load & Compute & Store:      10898 cycles

   ========= Runtime FU's ========= (Max | Avg) ===
   Counter FU's:                      32 | 0.046838
   Integer Add/Sub FU's:               0 | 0.000000
   Integer Mul/Div FU's:               0 | 0.000000
   Integer Shifter FU's:               0 | 0.000000
   Integer Bitwise FU's:               1 | 0.000091
   Floating Point Float Add/Sub:       0 | 0.000000
   Floating Point Double Add/Sub:      0 | 0.000000
   Floating Point Float Mul/Div:      34 | 0.044252
   Floating Point Double Mul/Div:      0 | 0.000000
   0 Cycle Compare FU's:             102 | 0.046945
   GEP Instruction FU's:              96 | 0.046835
   Type Conversion FU's:               7 | 0.006782

   ========= Static FU's ==========================
   Counter FU's:                    0
   Integer Add/Sub FU's:            0
   Integer Mul/Div FU's:            0
   Integer Shifter FU's:            0
   Integer Bitwise FU's:            0
   Floating Point Float Add/Sub:    0
   Floating Point Double Add/Sub:   0
   Floating Point Float Mul/Div:    0
   Floating Point Double Mul/Div:   0
   0 Cycle Compare FU's:            0
   GEP Instruction FU's:            0
   Type Conversion FU's:            0
   Other:                           0

   ========= Pipeline Register Usage =============
   Total Number of Registers:       5641
   Max Register Usage Per Cycle:    137
   Avg Register Usage Per Cycle:    12.130992
   Avg Register Size (Bytes):       5.980606

   ========= Memory Configuration =================
   Cache Bus Ports:                 0
   Shared Cache Size:               0kB
   Local Bus Ports:                 0
   Private SPM Size:                256kB
   Private Read Ports:              0
   Private Write Ports:             0
   Private Read Bus Width:          64
   Private Write Bus Width:         64
       Memory Reads:                0
       Memory Writes:               0
   ========= Power Analysis ======================
   FU Leakage Power:                0.045377 mW 
   FU Dynamic Power:                0.142576 mW 
   FU Total Power:                  0.187953 mW 

   Registers Leakage Power:          0.005281 mW 
   Registers Dynamic Power:          0.015326 mW 
       Register Reads (Bits):        132616
       Register Writes (Bits):       133658
   Registers Total Power:            0.020607 mW

   SPM Leakage Power:               0.104100 mW
   SPM Read Dynamic Power:          2.785289 mW
   SPM Write Dynamic Power:         2.044305 mW
   SPM Total Power:                 4.933694 mW

   Cache Leakage Power:             0.000000 mW
   Cache Read Dynamic Power:        0.000000 mW
   Cache Write Dynamic Power:       0.000000 mW
   Cache Total Power:               0.000000 mW

   Accelerator Power:               0.208559 mW
   Accelerator Power (SPM):         5.142254 mW
   Accelerator Power (Cache):       0.208559 mW

   ========= Area Analysis =======================
   FU Area:                         5472.068359 um^2 (0.005472 mm^2)
   Register Area:                   429.271088 um^2 (0.000429 mm^2)
   SPM Area:                        2177.365505 um^2 (0.002177 mm^2)
   Cache Area:                      0.000000 um^2 (0.000000 mm^2)

   Accelerator Area:                5901.339355 um^2 (0.005901 mm^2)
   Accelerator Area (SPM):          8078.704860 um^2 (0.008079 mm^2)
   Accelerator Area (Cache):        5901.339355 um^2 (0.005901 mm^2)

   ========= SPM Resizing  =======================
   SPM Optimized Leakage Power:     0.004248 mW
   SPM Opt Area:                    178.524902 um^2

3679923125: global: Timer #0 started at tick 3679923125
3680163125: global: Timer #2 started at tick 3680163125
3680236875: global: Timer #2 stopped at tick 3680236875. Duration: 73750
3680490000: global: DAG ID = 1
3680503750: global: Node ID = 5
3680516875: global: Node deadline difference = -2251
3680529375: global: Predicted memory time / byte = 0 us/byte
3680541875: global: Predicted memory time = 0 us
3680554375: global: Predicted memory time / byte = 0 us/byte
3680566875: global: Predicted memory time = 0 us
3680579375: global: Predicted memory time / byte = 0 us/byte
3680591875: global: Predicted memory time = 0 us
3680604375: global: Predicted memory time / byte = 0 us/byte
3680616875: global: Predicted memory time = 0 us
3680629375: global: Predicted memory access size = 0
3680641875: global: Predicted memory access size = 65536
3680654375: global: Predicted memory access size = 0
3680666875: global: Predicted memory access size = 0
3694117375: system.acctest.elem_matrix0_dma: SRC:0x00000000820fe0c0, DST:0x0000000024000020, LEN:65536
3694323125: global: Timer #0 stopped at tick 3694323125. Duration: 14400000
3694339375: global: Number of accelerators running = 2
3706114375: system.acctest.elem_matrix0_dma: Transfer completed in 11.997 us
3706190000: global: Timer #0 started at tick 3706190000
3707614375: global: Timer #0 stopped at tick 3707614375. Duration: 1424375
3707630625: global: Number of accelerators running = 2
********************************************************************************
system.acctest.elem_matrix0.compute
   ========= Performance Analysis =============
   Setup Time:                      9.938835seconds
   Simulation Time:                 251.185934seconds
   System Clock:                    1.000000GHz
   Transistor Latency:              1ns
   Runtime:                         10932 cycles
   Runtime:                         10.932000 us
   Stalls:                          0 cycles
   Executed Nodes:                  10931 cycles

********************************************************************************
   ========= Performance Analysis =================
   Setup Time:                      9938835073.000000ns
   Simulation Time:                 251185934176.000000ns
   System Clock:                    1.000000GHz
   Transistor Latency:              0ns
   Runtime:                         10932 cycles
   Runtime:                         0.000001 seconds
   Stalls:                          0 cycles
       Load Only:                   0 cycles
       Store Only:                  0 cycles
       Compute Only:                0 cycles
       Compute & Store:             0 cycles
       Load & Store:                0 cycles
       Load & Compute:              0 cycles
       Load & Compute & Store:      0 cycles
   Executed Nodes:                  10931 cycles
       Load Only:                   0 cycles
       Store Only:                  5 cycles
       Compute Only:                1 cycles
       Compute & Store:             21 cycles
       Load & Store:                0 cycles
       Load & Compute:              7 cycles
       Load & Compute & Store:      10897 cycles

   ========= Runtime FU's ========= (Max | Avg) ===
   Counter FU's:                      32 | 0.046838
   Integer Add/Sub FU's:               0 | 0.000000
   Integer Mul/Div FU's:               0 | 0.000000
   Integer Shifter FU's:               0 | 0.000000
   Integer Bitwise FU's:               1 | 0.000091
   Floating Point Float Add/Sub:      34 | 0.044252
   Floating Point Double Add/Sub:      0 | 0.000000
   Floating Point Float Mul/Div:       0 | 0.000000
   Floating Point Double Mul/Div:      0 | 0.000000
   0 Cycle Compare FU's:             102 | 0.046974
   GEP Instruction FU's:              96 | 0.046835
   Type Conversion FU's:               7 | 0.006782

   ========= Static FU's ==========================
   Counter FU's:                    0
   Integer Add/Sub FU's:            0
   Integer Mul/Div FU's:            0
   Integer Shifter FU's:            0
   Integer Bitwise FU's:            0
   Floating Point Float Add/Sub:    0
   Floating Point Double Add/Sub:   0
   Floating Point Float Mul/Div:    0
   Floating Point Double Mul/Div:   0
   0 Cycle Compare FU's:            0
   GEP Instruction FU's:            0
   Type Conversion FU's:            0
   Other:                           0

   ========= Pipeline Register Usage =============
   Total Number of Registers:       5641
   Max Register Usage Per Cycle:    138
   Avg Register Usage Per Cycle:    12.130992
   Avg Register Size (Bytes):       5.980606

   ========= Memory Configuration =================
   Cache Bus Ports:                 0
   Shared Cache Size:               0kB
   Local Bus Ports:                 0
   Private SPM Size:                256kB
   Private Read Ports:              0
   Private Write Ports:             0
   Private Read Bus Width:          64
   Private Write Bus Width:         64
       Memory Reads:                0
       Memory Writes:               0
   ========= Power Analysis ======================
   FU Leakage Power:                0.519269 mW 
   FU Dynamic Power:                0.154621 mW 
   FU Total Power:                  0.673890 mW 

   Registers Leakage Power:          0.005281 mW 
   Registers Dynamic Power:          0.015326 mW 
       Register Reads (Bits):        132616
       Register Writes (Bits):       133658
   Registers Total Power:            0.020607 mW

   SPM Leakage Power:               0.104100 mW
   SPM Read Dynamic Power:          3.776796 mW
   SPM Write Dynamic Power:         2.457440 mW
   SPM Total Power:                 6.338336 mW

   Cache Leakage Power:             0.000000 mW
   Cache Read Dynamic Power:        0.000000 mW
   Cache Write Dynamic Power:       0.000000 mW
   Cache Total Power:               0.000000 mW

   Accelerator Power:               0.694497 mW
   Accelerator Power (SPM):         7.032833 mW
   Accelerator Power (Cache):       0.694497 mW

   ========= Area Analysis =======================
   FU Area:                         70212.562500 um^2 (0.070213 mm^2)
   Register Area:                   429.271088 um^2 (0.000429 mm^2)
   SPM Area:                        2177.365505 um^2 (0.002177 mm^2)
   Cache Area:                      0.000000 um^2 (0.000000 mm^2)

   Accelerator Area:                70641.835938 um^2 (0.070642 mm^2)
   Accelerator Area (SPM):          72819.201442 um^2 (0.072819 mm^2)
   Accelerator Area (Cache):        70641.835938 um^2 (0.070642 mm^2)

   ========= SPM Resizing  =======================
   SPM Optimized Leakage Power:     0.004248 mW
   SPM Opt Area:                    178.524902 um^2

3718364375: global: Timer #0 started at tick 3718364375
3718623750: global: Timer #2 started at tick 3718623750
3718688750: global: Timer #2 stopped at tick 3718688750. Duration: 65000
3718937500: global: DAG ID = 1
3718951250: global: Node ID = 6
3718964375: global: Node deadline difference = -2270
3718976875: global: Predicted memory time / byte = 0 us/byte
3718989375: global: Predicted memory time = 0 us
3719001875: global: Predicted memory time / byte = 0 us/byte
3719014375: global: Predicted memory time = 0 us
3719026875: global: Predicted memory time / byte = 0 us/byte
3719039375: global: Predicted memory time = 0 us
3719051875: global: Predicted memory time / byte = 0 us/byte
3719064375: global: Predicted memory time = 0 us
3719076875: global: Predicted memory access size = 0
3719089375: global: Predicted memory access size = 65536
3719101875: global: Predicted memory access size = 0
3719114375: global: Predicted memory access size = 0
3720403750: global: Timer #0 stopped at tick 3720403750. Duration: 2039375
3720420000: global: Number of accelerators running = 2
********************************************************************************
system.acctest.elem_matrix0.compute
   ========= Performance Analysis =============
   Setup Time:                      14.022327seconds
   Simulation Time:                 190.929383seconds
   System Clock:                    1.000000GHz
   Transistor Latency:              1ns
   Runtime:                         8316 cycles
   Runtime:                         8.316000 us
   Stalls:                          82 cycles
   Executed Nodes:                  8233 cycles

********************************************************************************
   ========= Performance Analysis =================
   Setup Time:                      14022327163.000000ns
   Simulation Time:                 190929382854.000000ns
   System Clock:                    1.000000GHz
   Transistor Latency:              0ns
   Runtime:                         8316 cycles
   Runtime:                         0.000001 seconds
   Stalls:                          82 cycles
       Load Only:                   0 cycles
       Store Only:                  77 cycles
       Compute Only:                0 cycles
       Compute & Store:             5 cycles
       Load & Store:                0 cycles
       Load & Compute:              0 cycles
       Load & Compute & Store:      0 cycles
   Executed Nodes:                  8233 cycles
       Load Only:                   0 cycles
       Store Only:                  11 cycles
       Compute Only:                1827 cycles
       Compute & Store:             3453 cycles
       Load & Store:                0 cycles
       Load & Compute:              774 cycles
       Load & Compute & Store:      2168 cycles

   ========= Runtime FU's ========= (Max | Avg) ===
   Counter FU's:                      32 | 0.061572
   Integer Add/Sub FU's:               0 | 0.000000
   Integer Mul/Div FU's:               0 | 0.000000
   Integer Shifter FU's:               0 | 0.000000
   Integer Bitwise FU's:               1 | 0.000120
   Floating Point Float Add/Sub:      80 | 0.302014
   Floating Point Double Add/Sub:      0 | 0.000000
   Floating Point Float Mul/Div:      35 | 0.056511
   Floating Point Double Mul/Div:      0 | 0.000000
   0 Cycle Compare FU's:              15 | 0.024828
   GEP Instruction FU's:              64 | 0.061568
   Type Conversion FU's:              66 | 0.120964

   ========= Static FU's ==========================
   Counter FU's:                    0
   Integer Add/Sub FU's:            0
   Integer Mul/Div FU's:            0
   Integer Shifter FU's:            0
   Integer Bitwise FU's:            0
   Floating Point Float Add/Sub:    0
   Floating Point Double Add/Sub:   0
   Floating Point Float Mul/Div:    0
   Floating Point Double Mul/Div:   0
   0 Cycle Compare FU's:            0
   GEP Instruction FU's:            0
   Type Conversion FU's:            0
   Other:                           0

   ========= Pipeline Register Usage =============
   Total Number of Registers:       5641
   Max Register Usage Per Cycle:    126
   Avg Register Usage Per Cycle:    27.706590
   Avg Register Size (Bytes):       5.993295

   ========= Memory Configuration =================
   Cache Bus Ports:                 0
   Shared Cache Size:               0kB
   Local Bus Ports:                 0
   Private SPM Size:                256kB
   Private Read Ports:              0
   Private Write Ports:             0
   Private Read Bus Width:          64
   Private Write Bus Width:         64
       Memory Reads:                0
       Memory Writes:               0
   ========= Power Analysis ======================
   FU Leakage Power:                1.265749 mW 
   FU Dynamic Power:                1.166708 mW 
   FU Total Power:                  2.432457 mW 

   Registers Leakage Power:          0.011908 mW 
   Registers Dynamic Power:          0.045645 mW 
       Register Reads (Bits):        230408
       Register Writes (Bits):       231961
   Registers Total Power:            0.057553 mW

   SPM Leakage Power:               0.104100 mW
   SPM Read Dynamic Power:          4.599549 mW
   SPM Write Dynamic Power:         2.880682 mW
   SPM Total Power:                 7.584331 mW

   Cache Leakage Power:             0.000000 mW
   Cache Read Dynamic Power:        0.000000 mW
   Cache Write Dynamic Power:       0.000000 mW
   Cache Total Power:               0.000000 mW

   Accelerator Power:               2.490010 mW
   Accelerator Power (SPM):         10.074342 mW
   Accelerator Power (Cache):       2.490010 mW

   ========= Area Analysis =======================
   FU Area:                         170559.593750 um^2 (0.170560 mm^2)
   Register Area:                   967.909180 um^2 (0.000968 mm^2)
   SPM Area:                        2177.365505 um^2 (0.002177 mm^2)
   Cache Area:                      0.000000 um^2 (0.000000 mm^2)

   Accelerator Area:                171527.500000 um^2 (0.171527 mm^2)
   Accelerator Area (SPM):          173704.865505 um^2 (0.173705 mm^2)
   Accelerator Area (Cache):        171527.500000 um^2 (0.171527 mm^2)

   ========= SPM Resizing  =======================
   SPM Optimized Leakage Power:     0.003887 mW
   SPM Opt Area:                    172.850411 um^2

3728578125: global: Timer #0 started at tick 3728578125
3728820000: global: Timer #2 started at tick 3728820000
3728875000: global: Timer #2 stopped at tick 3728875000. Duration: 55000
3729108750: global: DAG ID = 1
3729122500: global: Node ID = 7
3729135625: global: Node deadline difference = -2298
3729148125: global: Predicted memory time / byte = 0 us/byte
3729160625: global: Predicted memory time = 0 us
3729173125: global: Predicted memory time / byte = 0 us/byte
3729185625: global: Predicted memory time = 0 us
3729198125: global: Predicted memory time / byte = 0 us/byte
3729210625: global: Predicted memory time = 0 us
3729223125: global: Predicted memory time / byte = 0 us/byte
3729235625: global: Predicted memory time = 0 us
3729248125: global: Predicted memory access size = 0
3729260625: global: Predicted memory access size = 0
3729273125: global: Predicted memory access size = 0
3729285625: global: Predicted memory access size = 0
3742651625: system.acctest.elem_matrix0_dma: SRC:0x000000008222e400, DST:0x0000000024010020, LEN:65536
3742860625: global: Timer #0 stopped at tick 3742860625. Duration: 14282500
3742876875: global: Number of accelerators running = 2
3754616625: system.acctest.elem_matrix0_dma: Transfer completed in 11.965 us
3754692500: global: Timer #0 started at tick 3754692500
3756068125: global: Timer #0 stopped at tick 3756068125. Duration: 1375625
3756084375: global: Number of accelerators running = 2
********************************************************************************
system.acctest.elem_matrix0.compute
   ========= Performance Analysis =============
   Setup Time:                      11.146929seconds
   Simulation Time:                 256.592013seconds
   System Clock:                    1.000000GHz
   Transistor Latency:              1ns
   Runtime:                         10932 cycles
   Runtime:                         10.932000 us
   Stalls:                          1 cycles
   Executed Nodes:                  10930 cycles

********************************************************************************
   ========= Performance Analysis =================
   Setup Time:                      11146929484.000000ns
   Simulation Time:                 256592013077.999969ns
   System Clock:                    1.000000GHz
   Transistor Latency:              0ns
   Runtime:                         10932 cycles
   Runtime:                         0.000001 seconds
   Stalls:                          1 cycles
       Load Only:                   0 cycles
       Store Only:                  1 cycles
       Compute Only:                0 cycles
       Compute & Store:             0 cycles
       Load & Store:                0 cycles
       Load & Compute:              0 cycles
       Load & Compute & Store:      0 cycles
   Executed Nodes:                  10930 cycles
       Load Only:                   0 cycles
       Store Only:                  4 cycles
       Compute Only:                1 cycles
       Compute & Store:             21 cycles
       Load & Store:                0 cycles
       Load & Compute:              6 cycles
       Load & Compute & Store:      10898 cycles

   ========= Runtime FU's ========= (Max | Avg) ===
   Counter FU's:                      32 | 0.046838
   Integer Add/Sub FU's:               0 | 0.000000
   Integer Mul/Div FU's:               0 | 0.000000
   Integer Shifter FU's:               0 | 0.000000
   Integer Bitwise FU's:               1 | 0.000091
   Floating Point Float Add/Sub:       0 | 0.000000
   Floating Point Double Add/Sub:      0 | 0.000000
   Floating Point Float Mul/Div:      34 | 0.044252
   Floating Point Double Mul/Div:      0 | 0.000000
   0 Cycle Compare FU's:             102 | 0.046945
   GEP Instruction FU's:              96 | 0.046835
   Type Conversion FU's:               7 | 0.006782

   ========= Static FU's ==========================
   Counter FU's:                    0
   Integer Add/Sub FU's:            0
   Integer Mul/Div FU's:            0
   Integer Shifter FU's:            0
   Integer Bitwise FU's:            0
   Floating Point Float Add/Sub:    0
   Floating Point Double Add/Sub:   0
   Floating Point Float Mul/Div:    0
   Floating Point Double Mul/Div:   0
   0 Cycle Compare FU's:            0
   GEP Instruction FU's:            0
   Type Conversion FU's:            0
   Other:                           0

   ========= Pipeline Register Usage =============
   Total Number of Registers:       5641
   Max Register Usage Per Cycle:    137
   Avg Register Usage Per Cycle:    12.130992
   Avg Register Size (Bytes):       5.980606

   ========= Memory Configuration =================
   Cache Bus Ports:                 0
   Shared Cache Size:               0kB
   Local Bus Ports:                 0
   Private SPM Size:                256kB
   Private Read Ports:              0
   Private Write Ports:             0
   Private Read Bus Width:          64
   Private Write Bus Width:         64
       Memory Reads:                0
       Memory Writes:               0
   ========= Power Analysis ======================
   FU Leakage Power:                0.045377 mW 
   FU Dynamic Power:                0.142576 mW 
   FU Total Power:                  0.187953 mW 

   Registers Leakage Power:          0.005281 mW 
   Registers Dynamic Power:          0.015326 mW 
       Register Reads (Bits):        132616
       Register Writes (Bits):       133658
   Registers Total Power:            0.020607 mW

   SPM Leakage Power:               0.104100 mW
   SPM Read Dynamic Power:          4.784107 mW
   SPM Write Dynamic Power:         3.448926 mW
   SPM Total Power:                 8.337133 mW

   Cache Leakage Power:             0.000000 mW
   Cache Read Dynamic Power:        0.000000 mW
   Cache Write Dynamic Power:       0.000000 mW
   Cache Total Power:               0.000000 mW

   Accelerator Power:               0.208559 mW
   Accelerator Power (SPM):         8.545693 mW
   Accelerator Power (Cache):       0.208559 mW

   ========= Area Analysis =======================
   FU Area:                         5472.068359 um^2 (0.005472 mm^2)
   Register Area:                   429.271088 um^2 (0.000429 mm^2)
   SPM Area:                        2177.365505 um^2 (0.002177 mm^2)
   Cache Area:                      0.000000 um^2 (0.000000 mm^2)

   Accelerator Area:                5901.339355 um^2 (0.005901 mm^2)
   Accelerator Area (SPM):          8078.704860 um^2 (0.008079 mm^2)
   Accelerator Area (Cache):        5901.339355 um^2 (0.005901 mm^2)

   ========= SPM Resizing  =======================
   SPM Optimized Leakage Power:     0.004248 mW
   SPM Opt Area:                    178.524902 um^2

3766827500: global: Timer #0 started at tick 3766827500
3767201875: global: Timer #2 started at tick 3767201875
3767319375: global: Timer #2 stopped at tick 3767319375. Duration: 117500
3767553750: global: DAG ID = 1
3767567500: global: Node ID = 8
3767580625: global: Node deadline difference = -2317
3767593125: global: Predicted memory time / byte = 0 us/byte
3767605625: global: Predicted memory time = 0 us
3767618125: global: Predicted memory time / byte = 0 us/byte
3767630625: global: Predicted memory time = 0 us
3767643125: global: Predicted memory time / byte = 0 us/byte
3767655625: global: Predicted memory time = 0 us
3767668125: global: Predicted memory time / byte = 0 us/byte
3767680625: global: Predicted memory time = 0 us
3767693125: global: Predicted memory access size = 0
3767705625: global: Predicted memory access size = 65536
3767718125: global: Predicted memory access size = 0
3767730625: global: Predicted memory access size = 0
3780986625: system.acctest.elem_matrix0_dma: SRC:0x000000008212e240, DST:0x0000000024000020, LEN:65536
3781189375: global: Timer #0 stopped at tick 3781189375. Duration: 14361875
3781205625: global: Number of accelerators running = 2
3793172625: system.acctest.elem_matrix0_dma: Transfer completed in 12.186 us
3793249375: global: Timer #0 started at tick 3793249375
3794612500: global: Timer #0 stopped at tick 3794612500. Duration: 1363125
3794628750: global: Number of accelerators running = 2
********************************************************************************
system.acctest.elem_matrix0.compute
   ========= Performance Analysis =============
   Setup Time:                      10.795377seconds
   Simulation Time:                 240.374524seconds
   System Clock:                    1.000000GHz
   Transistor Latency:              1ns
   Runtime:                         10932 cycles
   Runtime:                         10.932000 us
   Stalls:                          0 cycles
   Executed Nodes:                  10931 cycles

********************************************************************************
   ========= Performance Analysis =================
   Setup Time:                      10795377029.000000ns
   Simulation Time:                 240374523771.000000ns
   System Clock:                    1.000000GHz
   Transistor Latency:              0ns
   Runtime:                         10932 cycles
   Runtime:                         0.000001 seconds
   Stalls:                          0 cycles
       Load Only:                   0 cycles
       Store Only:                  0 cycles
       Compute Only:                0 cycles
       Compute & Store:             0 cycles
       Load & Store:                0 cycles
       Load & Compute:              0 cycles
       Load & Compute & Store:      0 cycles
   Executed Nodes:                  10931 cycles
       Load Only:                   0 cycles
       Store Only:                  5 cycles
       Compute Only:                1 cycles
       Compute & Store:             21 cycles
       Load & Store:                0 cycles
       Load & Compute:              7 cycles
       Load & Compute & Store:      10897 cycles

   ========= Runtime FU's ========= (Max | Avg) ===
   Counter FU's:                      32 | 0.046838
   Integer Add/Sub FU's:               0 | 0.000000
   Integer Mul/Div FU's:               0 | 0.000000
   Integer Shifter FU's:               0 | 0.000000
   Integer Bitwise FU's:               1 | 0.000091
   Floating Point Float Add/Sub:      34 | 0.044252
   Floating Point Double Add/Sub:      0 | 0.000000
   Floating Point Float Mul/Div:       0 | 0.000000
   Floating Point Double Mul/Div:      0 | 0.000000
   0 Cycle Compare FU's:             102 | 0.046974
   GEP Instruction FU's:              96 | 0.046835
   Type Conversion FU's:               7 | 0.006782

   ========= Static FU's ==========================
   Counter FU's:                    0
   Integer Add/Sub FU's:            0
   Integer Mul/Div FU's:            0
   Integer Shifter FU's:            0
   Integer Bitwise FU's:            0
   Floating Point Float Add/Sub:    0
   Floating Point Double Add/Sub:   0
   Floating Point Float Mul/Div:    0
   Floating Point Double Mul/Div:   0
   0 Cycle Compare FU's:            0
   GEP Instruction FU's:            0
   Type Conversion FU's:            0
   Other:                           0

   ========= Pipeline Register Usage =============
   Total Number of Registers:       5641
   Max Register Usage Per Cycle:    138
   Avg Register Usage Per Cycle:    12.130992
   Avg Register Size (Bytes):       5.980606

   ========= Memory Configuration =================
   Cache Bus Ports:                 0
   Shared Cache Size:               0kB
   Local Bus Ports:                 0
   Private SPM Size:                256kB
   Private Read Ports:              0
   Private Write Ports:             0
   Private Read Bus Width:          64
   Private Write Bus Width:         64
       Memory Reads:                0
       Memory Writes:               0
   ========= Power Analysis ======================
   FU Leakage Power:                0.519269 mW 
   FU Dynamic Power:                0.154621 mW 
   FU Total Power:                  0.673890 mW 

   Registers Leakage Power:          0.005281 mW 
   Registers Dynamic Power:          0.015326 mW 
       Register Reads (Bits):        132616
       Register Writes (Bits):       133658
   Registers Total Power:            0.020607 mW

   SPM Leakage Power:               0.104100 mW
   SPM Read Dynamic Power:          5.190014 mW
   SPM Write Dynamic Power:         3.846212 mW
   SPM Total Power:                 9.140327 mW

   Cache Leakage Power:             0.000000 mW
   Cache Read Dynamic Power:        0.000000 mW
   Cache Write Dynamic Power:       0.000000 mW
   Cache Total Power:               0.000000 mW

   Accelerator Power:               0.694497 mW
   Accelerator Power (SPM):         9.834824 mW
   Accelerator Power (Cache):       0.694497 mW

   ========= Area Analysis =======================
   FU Area:                         70212.562500 um^2 (0.070213 mm^2)
   Register Area:                   429.271088 um^2 (0.000429 mm^2)
   SPM Area:                        2177.365505 um^2 (0.002177 mm^2)
   Cache Area:                      0.000000 um^2 (0.000000 mm^2)

   Accelerator Area:                70641.835938 um^2 (0.070642 mm^2)
   Accelerator Area (SPM):          72819.201442 um^2 (0.072819 mm^2)
   Accelerator Area (Cache):        70641.835938 um^2 (0.070642 mm^2)

   ========= SPM Resizing  =======================
   SPM Optimized Leakage Power:     0.004248 mW
   SPM Opt Area:                    178.524902 um^2

3805377500: global: Timer #0 started at tick 3805377500
3805534375: global: Timer #2 started at tick 3805534375
3805641875: global: Timer #2 stopped at tick 3805641875. Duration: 107500
3818850875: system.acctest.elem_matrix0_dma: SRC:0x0000000024010020, DST:0x00000000821ce240, LEN:65536
3819211250: global: Timer #0 stopped at tick 3819211250. Duration: 13833750
3819227500: global: Number of accelerators running = 2
3825215875: system.acctest.elem_matrix0_dma: Transfer completed in 6.365 us
3825292500: global: Timer #0 started at tick 3825292500
3825492500: global: DAG ID = 1
3825506250: global: Node ID = 9
3825524375: global: Node deadline difference = -2316
3825536875: global: Predicted memory time / byte = 0 us/byte
3825549375: global: Predicted memory time = 0 us
3825561875: global: Predicted memory time / byte = 0 us/byte
3825574375: global: Predicted memory time = 0 us
3825586875: global: Predicted memory time / byte = 0 us/byte
3825599375: global: Predicted memory time = 0 us
3825611875: global: Predicted memory time / byte = 0 us/byte
3825624375: global: Predicted memory time = 0 us
3825636875: global: Predicted memory access size = 0
3825649375: global: Predicted memory access size = 65536
3825661875: global: Predicted memory access size = 0
3825674375: global: Predicted memory access size = 65536
3838975875: system.acctest.elem_matrix0_dma: SRC:0x000000008222e400, DST:0x0000000024000020, LEN:65536
3839180000: global: Timer #0 stopped at tick 3839180000. Duration: 13887500
3839196250: global: Number of accelerators running = 2
3850912875: system.acctest.elem_matrix0_dma: Transfer completed in 11.937 us
3850989375: global: Timer #0 started at tick 3850989375
3864326625: system.acctest.elem_matrix0_dma: SRC:0x00000000820ce0c0, DST:0x0000000024010020, LEN:65536
3864553125: global: Timer #0 stopped at tick 3864553125. Duration: 13563750
3864569375: global: Number of accelerators running = 2
3876344625: system.acctest.elem_matrix0_dma: Transfer completed in 12.018 us
3876420000: global: Timer #0 started at tick 3876420000
3877778750: global: Timer #0 stopped at tick 3877778750. Duration: 1358750
3877795000: global: Number of accelerators running = 2
********************************************************************************
system.acctest.elem_matrix0.compute
   ========= Performance Analysis =============
   Setup Time:                      8.189463seconds
   Simulation Time:                 232.401870seconds
   System Clock:                    1.000000GHz
   Transistor Latency:              1ns
   Runtime:                         10932 cycles
   Runtime:                         10.932000 us
   Stalls:                          1 cycles
   Executed Nodes:                  10930 cycles

********************************************************************************
   ========= Performance Analysis =================
   Setup Time:                      8189462558.000001ns
   Simulation Time:                 232401869559.000000ns
   System Clock:                    1.000000GHz
   Transistor Latency:              0ns
   Runtime:                         10932 cycles
   Runtime:                         0.000001 seconds
   Stalls:                          1 cycles
       Load Only:                   0 cycles
       Store Only:                  1 cycles
       Compute Only:                0 cycles
       Compute & Store:             0 cycles
       Load & Store:                0 cycles
       Load & Compute:              0 cycles
       Load & Compute & Store:      0 cycles
   Executed Nodes:                  10930 cycles
       Load Only:                   0 cycles
       Store Only:                  4 cycles
       Compute Only:                1 cycles
       Compute & Store:             21 cycles
       Load & Store:                0 cycles
       Load & Compute:              6 cycles
       Load & Compute & Store:      10898 cycles

   ========= Runtime FU's ========= (Max | Avg) ===
   Counter FU's:                      32 | 0.046838
   Integer Add/Sub FU's:               0 | 0.000000
   Integer Mul/Div FU's:               0 | 0.000000
   Integer Shifter FU's:               0 | 0.000000
   Integer Bitwise FU's:               1 | 0.000091
   Floating Point Float Add/Sub:       0 | 0.000000
   Floating Point Double Add/Sub:      0 | 0.000000
   Floating Point Float Mul/Div:      34 | 0.044252
   Floating Point Double Mul/Div:      0 | 0.000000
   0 Cycle Compare FU's:             102 | 0.046945
   GEP Instruction FU's:              96 | 0.046835
   Type Conversion FU's:               7 | 0.006782

   ========= Static FU's ==========================
   Counter FU's:                    0
   Integer Add/Sub FU's:            0
   Integer Mul/Div FU's:            0
   Integer Shifter FU's:            0
   Integer Bitwise FU's:            0
   Floating Point Float Add/Sub:    0
   Floating Point Double Add/Sub:   0
   Floating Point Float Mul/Div:    0
   Floating Point Double Mul/Div:   0
   0 Cycle Compare FU's:            0
   GEP Instruction FU's:            0
   Type Conversion FU's:            0
   Other:                           0

   ========= Pipeline Register Usage =============
   Total Number of Registers:       5641
   Max Register Usage Per Cycle:    137
   Avg Register Usage Per Cycle:    12.130992
   Avg Register Size (Bytes):       5.980606

   ========= Memory Configuration =================
   Cache Bus Ports:                 0
   Shared Cache Size:               0kB
   Local Bus Ports:                 0
   Private SPM Size:                256kB
   Private Read Ports:              0
   Private Write Ports:             0
   Private Read Bus Width:          64
   Private Write Bus Width:         64
       Memory Reads:                0
       Memory Writes:               0
   ========= Power Analysis ======================
   FU Leakage Power:                0.045377 mW 
   FU Dynamic Power:                0.142576 mW 
   FU Total Power:                  0.187953 mW 

   Registers Leakage Power:          0.005281 mW 
   Registers Dynamic Power:          0.015326 mW 
       Register Reads (Bits):        132616
       Register Writes (Bits):       133658
   Registers Total Power:            0.020607 mW

   SPM Leakage Power:               0.104100 mW
   SPM Read Dynamic Power:          5.599688 mW
   SPM Write Dynamic Power:         4.937352 mW
   SPM Total Power:                 10.641140 mW

   Cache Leakage Power:             0.000000 mW
   Cache Read Dynamic Power:        0.000000 mW
   Cache Write Dynamic Power:       0.000000 mW
   Cache Total Power:               0.000000 mW

   Accelerator Power:               0.208559 mW
   Accelerator Power (SPM):         10.849700 mW
   Accelerator Power (Cache):       0.208559 mW

   ========= Area Analysis =======================
   FU Area:                         5472.068359 um^2 (0.005472 mm^2)
   Register Area:                   429.271088 um^2 (0.000429 mm^2)
   SPM Area:                        2177.365505 um^2 (0.002177 mm^2)
   Cache Area:                      0.000000 um^2 (0.000000 mm^2)

   Accelerator Area:                5901.339355 um^2 (0.005901 mm^2)
   Accelerator Area (SPM):          8078.704860 um^2 (0.008079 mm^2)
   Accelerator Area (Cache):        5901.339355 um^2 (0.005901 mm^2)

   ========= SPM Resizing  =======================
   SPM Optimized Leakage Power:     0.004248 mW
   SPM Opt Area:                    178.524902 um^2

3888562500: global: Timer #0 started at tick 3888562500
3888719375: global: Timer #2 started at tick 3888719375
3888763750: global: Timer #2 stopped at tick 3888763750. Duration: 44375
3901952375: system.acctest.elem_matrix0_dma: SRC:0x0000000024020020, DST:0x000000008214e240, LEN:65536
3902302500: global: Timer #0 stopped at tick 3902302500. Duration: 13740000
3902318750: global: Number of accelerators running = 2
3908242375: system.acctest.elem_matrix0_dma: Transfer completed in 6.29 us
3908318125: global: Timer #0 started at tick 3908318125
3908508125: global: DAG ID = 1
3908521875: global: Node ID = 1
3908540000: global: Node deadline difference = -2291
3908552500: global: Predicted memory time / byte = 0 us/byte
3908565000: global: Predicted memory time = 0 us
3908577500: global: Predicted memory time / byte = 0 us/byte
3908590000: global: Predicted memory time = 0 us
3908602500: global: Predicted memory time / byte = 0 us/byte
3908615000: global: Predicted memory time = 0 us
3908627500: global: Predicted memory time / byte = 0 us/byte
3908640000: global: Predicted memory time = 0 us
3908652500: global: Predicted memory access size = 0
3908665000: global: Predicted memory access size = 131072
3908677500: global: Predicted memory access size = 0
3908690000: global: Predicted memory access size = 65536
3921949500: system.acctest.elem_matrix0_dma: SRC:0x00000000821ce240, DST:0x0000000024000020, LEN:65536
3922150625: global: Timer #0 stopped at tick 3922150625. Duration: 13832500
3922166875: global: Number of accelerators running = 2
3933938500: system.acctest.elem_matrix0_dma: Transfer completed in 11.989 us
3934014375: global: Timer #0 started at tick 3934014375
3947337375: system.acctest.elem_matrix0_dma: SRC:0x000000008210e0c0, DST:0x0000000024010020, LEN:65536
3947551250: global: Timer #0 stopped at tick 3947551250. Duration: 13536875
3947567500: global: Number of accelerators running = 2
3959313375: system.acctest.elem_matrix0_dma: Transfer completed in 11.976 us
3959389375: global: Timer #0 started at tick 3959389375
3960736250: global: Timer #0 stopped at tick 3960736250. Duration: 1346875
3960752500: global: Number of accelerators running = 2
********************************************************************************
system.acctest.elem_matrix0.compute
   ========= Performance Analysis =============
   Setup Time:                      9.361295seconds
   Simulation Time:                 241.983303seconds
   System Clock:                    1.000000GHz
   Transistor Latency:              1ns
   Runtime:                         10932 cycles
   Runtime:                         10.932000 us
   Stalls:                          1 cycles
   Executed Nodes:                  10930 cycles

********************************************************************************
   ========= Performance Analysis =================
   Setup Time:                      9361295335.000000ns
   Simulation Time:                 241983303005.000000ns
   System Clock:                    1.000000GHz
   Transistor Latency:              0ns
   Runtime:                         10932 cycles
   Runtime:                         0.000001 seconds
   Stalls:                          1 cycles
       Load Only:                   0 cycles
       Store Only:                  1 cycles
       Compute Only:                0 cycles
       Compute & Store:             0 cycles
       Load & Store:                0 cycles
       Load & Compute:              0 cycles
       Load & Compute & Store:      0 cycles
   Executed Nodes:                  10930 cycles
       Load Only:                   0 cycles
       Store Only:                  4 cycles
       Compute Only:                1 cycles
       Compute & Store:             21 cycles
       Load & Store:                0 cycles
       Load & Compute:              6 cycles
       Load & Compute & Store:      10898 cycles

   ========= Runtime FU's ========= (Max | Avg) ===
   Counter FU's:                      32 | 0.046838
   Integer Add/Sub FU's:               0 | 0.000000
   Integer Mul/Div FU's:               0 | 0.000000
   Integer Shifter FU's:               0 | 0.000000
   Integer Bitwise FU's:               1 | 0.000091
   Floating Point Float Add/Sub:       0 | 0.000000
   Floating Point Double Add/Sub:      0 | 0.000000
   Floating Point Float Mul/Div:      34 | 0.044252
   Floating Point Double Mul/Div:      0 | 0.000000
   0 Cycle Compare FU's:             102 | 0.046945
   GEP Instruction FU's:              96 | 0.046835
   Type Conversion FU's:               7 | 0.006782

   ========= Static FU's ==========================
   Counter FU's:                    0
   Integer Add/Sub FU's:            0
   Integer Mul/Div FU's:            0
   Integer Shifter FU's:            0
   Integer Bitwise FU's:            0
   Floating Point Float Add/Sub:    0
   Floating Point Double Add/Sub:   0
   Floating Point Float Mul/Div:    0
   Floating Point Double Mul/Div:   0
   0 Cycle Compare FU's:            0
   GEP Instruction FU's:            0
   Type Conversion FU's:            0
   Other:                           0

   ========= Pipeline Register Usage =============
   Total Number of Registers:       5641
   Max Register Usage Per Cycle:    137
   Avg Register Usage Per Cycle:    12.130992
   Avg Register Size (Bytes):       5.980606

   ========= Memory Configuration =================
   Cache Bus Ports:                 0
   Shared Cache Size:               0kB
   Local Bus Ports:                 0
   Private SPM Size:                256kB
   Private Read Ports:              0
   Private Write Ports:             0
   Private Read Bus Width:          64
   Private Write Bus Width:         64
       Memory Reads:                0
       Memory Writes:               0
   ========= Power Analysis ======================
   FU Leakage Power:                0.045377 mW 
   FU Dynamic Power:                0.142576 mW 
   FU Total Power:                  0.187953 mW 

   Registers Leakage Power:          0.005281 mW 
   Registers Dynamic Power:          0.015326 mW 
       Register Reads (Bits):        132616
       Register Writes (Bits):       133658
   Registers Total Power:            0.020607 mW

   SPM Leakage Power:               0.104100 mW
   SPM Read Dynamic Power:          6.009405 mW
   SPM Write Dynamic Power:         4.673423 mW
   SPM Total Power:                 10.786928 mW

   Cache Leakage Power:             0.000000 mW
   Cache Read Dynamic Power:        0.000000 mW
   Cache Write Dynamic Power:       0.000000 mW
   Cache Total Power:               0.000000 mW

   Accelerator Power:               0.208559 mW
   Accelerator Power (SPM):         10.995488 mW
   Accelerator Power (Cache):       0.208559 mW

   ========= Area Analysis =======================
   FU Area:                         5472.068359 um^2 (0.005472 mm^2)
   Register Area:                   429.271088 um^2 (0.000429 mm^2)
   SPM Area:                        2177.365505 um^2 (0.002177 mm^2)
   Cache Area:                      0.000000 um^2 (0.000000 mm^2)

   Accelerator Area:                5901.339355 um^2 (0.005901 mm^2)
   Accelerator Area (SPM):          8078.704860 um^2 (0.008079 mm^2)
   Accelerator Area (Cache):        5901.339355 um^2 (0.005901 mm^2)

   ========= SPM Resizing  =======================
   SPM Optimized Leakage Power:     0.004248 mW
   SPM Opt Area:                    178.524902 um^2

3971519375: global: Timer #0 started at tick 3971519375
3971751250: global: Timer #2 started at tick 3971751250
3971792500: global: Timer #2 stopped at tick 3971792500. Duration: 41250
3984980875: system.acctest.elem_matrix0_dma: SRC:0x0000000024020020, DST:0x00000000821de240, LEN:65536
3985330000: global: Timer #0 stopped at tick 3985330000. Duration: 13810625
3985346250: global: Number of accelerators running = 2
3991317875: system.acctest.elem_matrix0_dma: Transfer completed in 6.337 us
3991394375: global: Timer #0 started at tick 3991394375
3991584375: global: DAG ID = 1
3991598125: global: Node ID = 10
3991616250: global: Node deadline difference = -2208
3991628750: global: Predicted memory time / byte = 0 us/byte
3991641250: global: Predicted memory time = 0 us
3991653750: global: Predicted memory time / byte = 0 us/byte
3991666250: global: Predicted memory time = 0 us
3991678750: global: Predicted memory time / byte = 0 us/byte
3991691250: global: Predicted memory time = 0 us
3991703750: global: Predicted memory time / byte = 0 us/byte
3991716250: global: Predicted memory time = 0 us
3991728750: global: Predicted memory access size = 0
3991741250: global: Predicted memory access size = 131072
3991753750: global: Predicted memory access size = 0
3991766250: global: Predicted memory access size = 65536
4005039500: system.acctest.elem_matrix0_dma: SRC:0x000000008214e240, DST:0x0000000024000020, LEN:65536
4005240625: global: Timer #0 stopped at tick 4005240625. Duration: 13846250
4005256875: global: Number of accelerators running = 2
4017052500: system.acctest.elem_matrix0_dma: Transfer completed in 12.013 us
4017128125: global: Timer #0 started at tick 4017128125
4030445875: system.acctest.elem_matrix0_dma: SRC:0x00000000820de0c0, DST:0x0000000024010020, LEN:65536
4030659375: global: Timer #0 stopped at tick 4030659375. Duration: 13531250
4030675625: global: Number of accelerators running = 2
4042413875: system.acctest.elem_matrix0_dma: Transfer completed in 11.968 us
4042490000: global: Timer #0 started at tick 4042490000
4043833750: global: Timer #0 stopped at tick 4043833750. Duration: 1343750
4043850000: global: Number of accelerators running = 2
********************************************************************************
system.acctest.elem_matrix0.compute
   ========= Performance Analysis =============
   Setup Time:                      9.986717seconds
   Simulation Time:                 225.794381seconds
   System Clock:                    1.000000GHz
   Transistor Latency:              1ns
   Runtime:                         10932 cycles
   Runtime:                         10.932000 us
   Stalls:                          0 cycles
   Executed Nodes:                  10931 cycles

********************************************************************************
   ========= Performance Analysis =================
   Setup Time:                      9986717165.000000ns
   Simulation Time:                 225794381030.000000ns
   System Clock:                    1.000000GHz
   Transistor Latency:              0ns
   Runtime:                         10932 cycles
   Runtime:                         0.000001 seconds
   Stalls:                          0 cycles
       Load Only:                   0 cycles
       Store Only:                  0 cycles
       Compute Only:                0 cycles
       Compute & Store:             0 cycles
       Load & Store:                0 cycles
       Load & Compute:              0 cycles
       Load & Compute & Store:      0 cycles
   Executed Nodes:                  10931 cycles
       Load Only:                   0 cycles
       Store Only:                  5 cycles
       Compute Only:                1 cycles
       Compute & Store:             21 cycles
       Load & Store:                0 cycles
       Load & Compute:              7 cycles
       Load & Compute & Store:      10897 cycles

   ========= Runtime FU's ========= (Max | Avg) ===
   Counter FU's:                      32 | 0.046838
   Integer Add/Sub FU's:               0 | 0.000000
   Integer Mul/Div FU's:               0 | 0.000000
   Integer Shifter FU's:               0 | 0.000000
   Integer Bitwise FU's:               1 | 0.000091
   Floating Point Float Add/Sub:      34 | 0.044252
   Floating Point Double Add/Sub:      0 | 0.000000
   Floating Point Float Mul/Div:       0 | 0.000000
   Floating Point Double Mul/Div:      0 | 0.000000
   0 Cycle Compare FU's:             102 | 0.046974
   GEP Instruction FU's:              96 | 0.046835
   Type Conversion FU's:               7 | 0.006782

   ========= Static FU's ==========================
   Counter FU's:                    0
   Integer Add/Sub FU's:            0
   Integer Mul/Div FU's:            0
   Integer Shifter FU's:            0
   Integer Bitwise FU's:            0
   Floating Point Float Add/Sub:    0
   Floating Point Double Add/Sub:   0
   Floating Point Float Mul/Div:    0
   Floating Point Double Mul/Div:   0
   0 Cycle Compare FU's:            0
   GEP Instruction FU's:            0
   Type Conversion FU's:            0
   Other:                           0

   ========= Pipeline Register Usage =============
   Total Number of Registers:       5641
   Max Register Usage Per Cycle:    138
   Avg Register Usage Per Cycle:    12.130992
   Avg Register Size (Bytes):       5.980606

   ========= Memory Configuration =================
   Cache Bus Ports:                 0
   Shared Cache Size:               0kB
   Local Bus Ports:                 0
   Private SPM Size:                256kB
   Private Read Ports:              0
   Private Write Ports:             0
   Private Read Bus Width:          64
   Private Write Bus Width:         64
       Memory Reads:                0
       Memory Writes:               0
   ========= Power Analysis ======================
   FU Leakage Power:                0.519269 mW 
   FU Dynamic Power:                0.154621 mW 
   FU Total Power:                  0.673890 mW 

   Registers Leakage Power:          0.005281 mW 
   Registers Dynamic Power:          0.015326 mW 
       Register Reads (Bits):        132616
       Register Writes (Bits):       133658
   Registers Total Power:            0.020607 mW

   SPM Leakage Power:               0.104100 mW
   SPM Read Dynamic Power:          7.109320 mW
   SPM Write Dynamic Power:         4.890273 mW
   SPM Total Power:                 12.103693 mW

   Cache Leakage Power:             0.000000 mW
   Cache Read Dynamic Power:        0.000000 mW
   Cache Write Dynamic Power:       0.000000 mW
   Cache Total Power:               0.000000 mW

   Accelerator Power:               0.694497 mW
   Accelerator Power (SPM):         12.798190 mW
   Accelerator Power (Cache):       0.694497 mW

   ========= Area Analysis =======================
   FU Area:                         70212.562500 um^2 (0.070213 mm^2)
   Register Area:                   429.271088 um^2 (0.000429 mm^2)
   SPM Area:                        2177.365505 um^2 (0.002177 mm^2)
   Cache Area:                      0.000000 um^2 (0.000000 mm^2)

   Accelerator Area:                70641.835938 um^2 (0.070642 mm^2)
   Accelerator Area (SPM):          72819.201442 um^2 (0.072819 mm^2)
   Accelerator Area (Cache):        70641.835938 um^2 (0.070642 mm^2)

   ========= SPM Resizing  =======================
   SPM Optimized Leakage Power:     0.004248 mW
   SPM Opt Area:                    178.524902 um^2

4054622500: global: Timer #0 started at tick 4054622500
4054853750: global: Timer #2 started at tick 4054853750
4054895000: global: Timer #2 stopped at tick 4054895000. Duration: 41250
4068067375: system.acctest.elem_matrix0_dma: SRC:0x0000000024020020, DST:0x000000008215e240, LEN:65536
4068420625: global: Timer #0 stopped at tick 4068420625. Duration: 13798125
4068436875: global: Number of accelerators running = 2
4074459375: system.acctest.elem_matrix0_dma: Transfer completed in 6.392 us
4074535000: global: Timer #0 started at tick 4074535000
4074725625: global: DAG ID = 1
4074739375: global: Node ID = 2
4074757500: global: Node deadline difference = -2182
4074770000: global: Predicted memory time / byte = 0 us/byte
4074782500: global: Predicted memory time = 0 us
4074795000: global: Predicted memory time / byte = 0 us/byte
4074807500: global: Predicted memory time = 0 us
4074820000: global: Predicted memory time / byte = 0 us/byte
4074832500: global: Predicted memory time = 0 us
4074845000: global: Predicted memory time / byte = 0 us/byte
4074857500: global: Predicted memory time = 0 us
4074870000: global: Predicted memory access size = 0
4074882500: global: Predicted memory access size = 131072
4074895000: global: Predicted memory access size = 0
4074907500: global: Predicted memory access size = 65536
4088159500: system.acctest.elem_matrix0_dma: SRC:0x00000000821de240, DST:0x0000000024000020, LEN:65536
4088360625: global: Timer #0 stopped at tick 4088360625. Duration: 13825625
4088376875: global: Number of accelerators running = 2
4100153500: system.acctest.elem_matrix0_dma: Transfer completed in 11.994 us
4100229375: global: Timer #0 started at tick 4100229375
4113576625: system.acctest.elem_matrix0_dma: SRC:0x000000008211e0c0, DST:0x0000000024010020, LEN:65536
4113790625: global: Timer #0 stopped at tick 4113790625. Duration: 13561250
4113806875: global: Number of accelerators running = 2
4125542625: system.acctest.elem_matrix0_dma: Transfer completed in 11.966 us
4125619375: global: Timer #0 started at tick 4125619375
4126926875: global: Timer #0 stopped at tick 4126926875. Duration: 1307500
[...]
       Load Only:                   0 cycles
       Store Only:                  5 cycles
       Compute Only:                0 cycles
       Compute & Store:             715 cycles
       Load & Store:                0 cycles
       Load & Compute:              0 cycles
       Load & Compute & Store:      0 cycles
   Executed Nodes:                  7546 cycles
       Load Only:                   0 cycles
       Store Only:                  11 cycles
       Compute Only:                452 cycles
       Compute & Store:             2648 cycles
       Load & Store:                0 cycles
       Load & Compute:              1462 cycles
       Load & Compute & Store:      2973 cycles

   ========= Runtime FU's ========= (Max | Avg) ===
   Counter FU's:                      32 | 0.061937
   Integer Add/Sub FU's:               4 | 0.495555
   Integer Mul/Div FU's:               0 | 0.000000
   Integer Shifter FU's:               4 | 0.495494
   Integer Bitwise FU's:               1 | 0.000121
   Floating Point Float Add/Sub:      63 | 0.097431
   Floating Point Double Add/Sub:      0 | 0.000000
   Floating Point Float Mul/Div:     108 | 0.188192
   Floating Point Double Mul/Div:      0 | 0.000000
   0 Cycle Compare FU's:              15 | 0.024975
   GEP Instruction FU's:              64 | 0.061933
   Type Conversion FU's:               8 | 0.503372

   ========= Static FU's ==========================
   Counter FU's:                    0
   Integer Add/Sub FU's:            0
   Integer Mul/Div FU's:            0
   Integer Shifter FU's:            0
   Integer Bitwise FU's:            0
   Floating Point Float Add/Sub:    0
   Floating Point Double Add/Sub:   0
   Floating Point Float Mul/Div:    0
   Floating Point Double Mul/Div:   0
   0 Cycle Compare FU's:            0
   GEP Instruction FU's:            0
   Type Conversion FU's:            0
   Other:                           0

   ========= Pipeline Register Usage =============
   Total Number of Registers:       5641
   Max Register Usage Per Cycle:    150
   Avg Register Usage Per Cycle:    43.725656
   Avg Register Size (Bytes):       4.907931

   ========= Memory Configuration =================
   Cache Bus Ports:                 0
   Shared Cache Size:               0kB
   Local Bus Ports:                 0
   Private SPM Size:                256kB
   Private Read Ports:              0
   Private Write Ports:             0
   Private Read Bus Width:          64
   Private Write Bus Width:         64
       Memory Reads:                0
       Memory Writes:               0
   ========= Power Analysis ======================
   FU Leakage Power:                1.022723 mW 
   FU Dynamic Power:                0.339566 mW 
   FU Total Power:                  1.362289 mW 

   Registers Leakage Power:          0.015530 mW 
   Registers Dynamic Power:          0.092731 mW 
       Register Reads (Bits):        361480
       Register Writes (Bits):       363033
   Registers Total Power:            0.108261 mW

   SPM Leakage Power:               0.104100 mW
   SPM Read Dynamic Power:          23.075128 mW
   SPM Write Dynamic Power:         19.055308 mW
   SPM Total Power:                 42.234536 mW

   Cache Leakage Power:             0.000000 mW
   Cache Read Dynamic Power:        0.000000 mW
   Cache Write Dynamic Power:       0.000000 mW
   Cache Total Power:               0.000000 mW

   Accelerator Power:               1.470550 mW
   Accelerator Power (SPM):         43.705086 mW
   Accelerator Power (Cache):       1.470550 mW

   ========= Area Analysis =======================
   FU Area:                         136477.078125 um^2 (0.136477 mm^2)
   Register Area:                   1262.327881 um^2 (0.001262 mm^2)
   SPM Area:                        2177.365505 um^2 (0.002177 mm^2)
   Cache Area:                      0.000000 um^2 (0.000000 mm^2)

   Accelerator Area:                137739.406250 um^2 (0.137739 mm^2)
   Accelerator Area (SPM):          139916.771755 um^2 (0.139917 mm^2)
   Accelerator Area (Cache):        137739.406250 um^2 (0.137739 mm^2)

   ========= SPM Resizing  =======================
   SPM Optimized Leakage Power:     0.004603 mW
   SPM Opt Area:                    183.901359 um^2

10987727500: global: Timer #0 started at tick 10987727500
10987963750: global: Timer #2 started at tick 10987963750
10987998125: global: Timer #2 stopped at tick 10987998125. Duration: 34375
10988248750: global: DAG ID = 0
10988262500: global: Node ID = 9
10988275625: global: Node deadline difference = -8546
10988288125: global: Predicted memory time / byte = 0 us/byte
10988300625: global: Predicted memory time = 0 us
10988313125: global: Predicted memory time / byte = 0 us/byte
10988325625: global: Predicted memory time = 0 us
10988338125: global: Predicted memory time / byte = 0 us/byte
10988350625: global: Predicted memory time = 0 us
10988363125: global: Predicted memory time / byte = 0 us/byte
10988375625: global: Predicted memory time = 0 us
10988388125: global: Predicted memory access size = 0
10988400625: global: Predicted memory access size = 65536
10988413125: global: Predicted memory access size = 0
10988425625: global: Predicted memory access size = 0
10989322375: system.acctest.canny_non_max0_dma: SRC:0x0000000024010020, DST:0x0000000021000020, LEN:65536
10989658125: global: Timer #0 stopped at tick 10989658125. Duration: 1930625
10989674375: global: Number of accelerators running = 1
10999583375: system.acctest.canny_non_max0_dma: Transfer completed in 10.261 us
10999681250: global: Timer #0 started at tick 10999681250
11013293750: system.acctest.canny_non_max0_dma: SRC:0x00000000820a9dc0, DST:0x0000000021010020, LEN:65536
11013520625: global: Timer #0 stopped at tick 11013520625. Duration: 13839375
11013536875: global: Number of accelerators running = 1
11025373750: system.acctest.canny_non_max0_dma: Transfer completed in 12.08 us
11025460625: global: Timer #0 started at tick 11025460625
11026271250: global: Timer #0 stopped at tick 11026271250. Duration: 810625
11026287500: global: Number of accelerators running = 1
********************************************************************************
system.acctest.canny_non_max0.compute
   ========= Performance Analysis =============
   Setup Time:                      0.201435seconds
   Simulation Time:                 26.910137seconds
   System Clock:                    1.000000GHz
   Transistor Latency:              1ns
   Runtime:                         397562 cycles
   Runtime:                         397.562000 us
   Stalls:                          127008 cycles
   Executed Nodes:                  270553 cycles

********************************************************************************
   ========= Performance Analysis =================
   Setup Time:                      201435102.000000ns
   Simulation Time:                 26910136618.000000ns
   System Clock:                    1.000000GHz
   Transistor Latency:              0ns
   Runtime:                         397562 cycles
   Runtime:                         0.000040 seconds
   Stalls:                          127008 cycles
       Load Only:                   15876 cycles
       Store Only:                  0 cycles
       Compute Only:                111132 cycles
       Compute & Store:             0 cycles
       Load & Store:                0 cycles
       Load & Compute:              0 cycles
       Load & Compute & Store:      0 cycles
   Executed Nodes:                  270553 cycles
       Load Only:                   0 cycles
       Store Only:                  0 cycles
       Compute Only:                206541 cycles
       Compute & Store:             16384 cycles
       Load & Store:                0 cycles
       Load & Compute:              47628 cycles
       Load & Compute & Store:      0 cycles

   ========= Runtime FU's ========= (Max | Avg) ===
   Counter FU's:                       3 | 0.014169
   Integer Add/Sub FU's:               2 | 0.060539
   Integer Mul/Div FU's:               0 | 0.000000
   Integer Shifter FU's:               4 | 0.000322
   Integer Bitwise FU's:               7 | 0.074539
   Floating Point Float Add/Sub:       1 | 0.039933
   Floating Point Double Add/Sub:      0 | 0.000000
   Floating Point Float Mul/Div:       0 | 0.000000
   Floating Point Double Mul/Div:      2 | 0.039933
   0 Cycle Compare FU's:              12 | 0.103529
   GEP Instruction FU's:               2 | 0.100472
   Type Conversion FU's:              11 | 0.051472

   ========= Static FU's ==========================
   Counter FU's:                    0
   Integer Add/Sub FU's:            0
   Integer Mul/Div FU's:            0
   Integer Shifter FU's:            0
   Integer Bitwise FU's:            0
   Floating Point Float Add/Sub:    0
   Floating Point Double Add/Sub:   0
   Floating Point Float Mul/Div:    0
   Floating Point Double Mul/Div:   0
   0 Cycle Compare FU's:            0
   GEP Instruction FU's:            0
   Type Conversion FU's:            0
   Other:                           0

   ========= Pipeline Register Usage =============
   Total Number of Registers:       984
   Max Register Usage Per Cycle:    14
   Avg Register Usage Per Cycle:    1.646143
   Avg Register Size (Bytes):       5.905486

   ========= Memory Configuration =================
   Cache Bus Ports:                 0
   Shared Cache Size:               0kB
   Local Bus Ports:                 0
   Private SPM Size:                256kB
   Private Read Ports:              0
   Private Write Ports:             0
   Private Read Bus Width:          64
   Private Write Bus Width:         64
       Memory Reads:                0
       Memory Writes:               0
   ========= Power Analysis ======================
   FU Leakage Power:                0.154296 mW 
   FU Dynamic Power:                31.597713 mW 
   FU Total Power:                  31.752010 mW 

   Registers Leakage Power:          0.000435 mW 
   Registers Dynamic Power:          0.228396 mW 
       Register Reads (Bits):        654447
       Register Writes (Bits):       671621
   Registers Total Power:            0.228830 mW

   SPM Leakage Power:               0.104100 mW
   SPM Read Dynamic Power:          2.733186 mW
   SPM Write Dynamic Power:         0.953321 mW
   SPM Total Power:                 3.790607 mW

   Cache Leakage Power:             0.000000 mW
   Cache Read Dynamic Power:        0.000000 mW
   Cache Write Dynamic Power:       0.000000 mW
   Cache Total Power:               0.000000 mW

   Accelerator Power:               31.980841 mW
   Accelerator Power (SPM):         35.771448 mW
   Accelerator Power (Cache):       31.980841 mW

   ========= Area Analysis =======================
   FU Area:                         17359.687500 um^2 (0.017360 mm^2)
   Register Area:                   35.323269 um^2 (0.000035 mm^2)
   SPM Area:                        2177.365505 um^2 (0.002177 mm^2)
   Cache Area:                      0.000000 um^2 (0.000000 mm^2)

   Accelerator Area:                17395.011719 um^2 (0.017395 mm^2)
   Accelerator Area (SPM):          19572.377224 um^2 (0.019572 mm^2)
   Accelerator Area (Cache):        17395.011719 um^2 (0.017395 mm^2)

   ========= SPM Resizing  =======================
   SPM Optimized Leakage Power:     0.002053 mW
   SPM Opt Area:                    145.024971 um^2

11423708125: global: Timer #0 started at tick 11423708125
11424015625: global: Timer #2 started at tick 11424015625
11424058125: global: Timer #2 stopped at tick 11424058125. Duration: 42500
11424370625: global: DAG ID = 0
11424384375: global: Node ID = 10
11424397500: global: Node deadline difference = -8556
11424410000: global: Predicted memory time / byte = 0 us/byte
11424422500: global: Predicted memory time = 0 us
11424435000: global: Predicted memory time / byte = 0 us/byte
11424447500: global: Predicted memory time = 0 us
11424460000: global: Predicted memory time / byte = 0 us/byte
11424472500: global: Predicted memory time = 0 us
11424485000: global: Predicted memory time / byte = 0 us/byte
11424497500: global: Predicted memory time = 0 us
11424510000: global: Predicted memory access size = 0
11424522500: global: Predicted memory access size = 131072
11424535000: global: Predicted memory access size = 0
11424547500: global: Predicted memory access size = 0
11425473750: system.acctest.edge_tracking0_dma: SRC:0x0000000021020020, DST:0x0000000023000020, LEN:65536
11425756250: global: Timer #0 stopped at tick 11425756250. Duration: 2048125
11425772500: global: Number of accelerators running = 1
11435734750: system.acctest.edge_tracking0_dma: Transfer completed in 10.261 us
11435833125: global: Timer #0 started at tick 11435833125
11437104375: global: Timer #0 stopped at tick 11437104375. Duration: 1271250
11437120625: global: Number of accelerators running = 1
********************************************************************************
system.acctest.edge_tracking0.compute
   ========= Performance Analysis =============
   Setup Time:                      0.046269seconds
   Simulation Time:                 104.261131seconds
   System Clock:                    1.000000GHz
   Transistor Latency:              1ns
   Runtime:                         212904 cycles
   Runtime:                         212.904000 us
   Stalls:                          32265 cycles
   Executed Nodes:                  180638 cycles

********************************************************************************
   ========= Performance Analysis =================
   Setup Time:                      46269129.000000ns
   Simulation Time:                 104261130823.000000ns
   System Clock:                    1.000000GHz
   Transistor Latency:              0ns
   Runtime:                         212904 cycles
   Runtime:                         0.000021 seconds
   Stalls:                          32265 cycles
       Load Only:                   32259 cycles
       Store Only:                  0 cycles
       Compute Only:                6 cycles
       Compute & Store:             0 cycles
       Load & Store:                0 cycles
       Load & Compute:              0 cycles
       Load & Compute & Store:      0 cycles
   Executed Nodes:                  180638 cycles
       Load Only:                   0 cycles
       Store Only:                  0 cycles
       Compute Only:                99226 cycles
       Compute & Store:             32768 cycles
       Load & Store:                0 cycles
       Load & Compute:              48644 cycles
       Load & Compute & Store:      0 cycles

   ========= Runtime FU's ========= (Max | Avg) ===
   Counter FU's:                       6 | 0.039282
   Integer Add/Sub FU's:               1 | 0.153910
   Integer Mul/Div FU's:               1 | 0.000009
   Integer Shifter FU's:               2 | 0.000902
   Integer Bitwise FU's:               3 | 0.102459
   Floating Point Float Add/Sub:       0 | 0.000000
   Floating Point Double Add/Sub:      0 | 0.000000
   Floating Point Float Mul/Div:       2 | 0.000014
   Floating Point Double Mul/Div:      0 | 0.000000
   0 Cycle Compare FU's:              14 | 0.132272
   GEP Instruction FU's:               2 | 0.191192
   Type Conversion FU's:               8 | 0.068278

   ========= Static FU's ==========================
   Counter FU's:                    0
   Integer Add/Sub FU's:            0
   Integer Mul/Div FU's:            0
   Integer Shifter FU's:            0
   Integer Bitwise FU's:            0
   Floating Point Float Add/Sub:    0
   Floating Point Double Add/Sub:   0
   Floating Point Float Mul/Div:    0
   Floating Point Double Mul/Div:   0
   0 Cycle Compare FU's:            0
   GEP Instruction FU's:            0
   Type Conversion FU's:            0
   Other:                           0

   ========= Pipeline Register Usage =============
   Total Number of Registers:       545
   Max Register Usage Per Cycle:    10
   Avg Register Usage Per Cycle:    2.387207
   Avg Register Size (Bytes):       5.554582

   ========= Memory Configuration =================
   Cache Bus Ports:                 0
   Shared Cache Size:               0kB
   Local Bus Ports:                 0
   Private SPM Size:                96kB
   Private Read Ports:              0
   Private Write Ports:             0
   Private Read Bus Width:          64
   Private Write Bus Width:         64
       Memory Reads:                0
       Memory Writes:               0
   ========= Power Analysis ======================
   FU Leakage Power:                0.100547 mW 
   FU Dynamic Power:                3.888525 mW 
   FU Total Power:                  3.989072 mW 

   Registers Leakage Power:          0.000818 mW 
   Registers Dynamic Power:          0.179318 mW 
       Register Reads (Bits):        508249
       Register Writes (Bits):       525220
   Registers Total Power:            0.180136 mW

   SPM Leakage Power:               0.036222 mW
   SPM Read Dynamic Power:          1.276530 mW
   SPM Write Dynamic Power:         1.004807 mW
   SPM Total Power:                 2.317559 mW

   Cache Leakage Power:             0.000000 mW
   Cache Read Dynamic Power:        0.000000 mW
   Cache Write Dynamic Power:       0.000000 mW
   Cache Total Power:               0.000000 mW

   Accelerator Power:               4.169208 mW
   Accelerator Power (SPM):         6.486767 mW
   Accelerator Power (Cache):       4.169208 mW

   ========= Area Analysis =======================
   FU Area:                         10667.099609 um^2 (0.010667 mm^2)
   Register Area:                   66.448715 um^2 (0.000066 mm^2)
   SPM Area:                        517.544224 um^2 (0.000518 mm^2)
   Cache Area:                      0.000000 um^2 (0.000000 mm^2)

   Accelerator Area:                10733.547852 um^2 (0.010734 mm^2)
   Accelerator Area (SPM):          11251.092075 um^2 (0.011251 mm^2)
   Accelerator Area (Cache):        10733.547852 um^2 (0.010734 mm^2)

   ========= SPM Resizing  =======================
   SPM Optimized Leakage Power:     0.001770 mW
   SPM Opt Area:                    77.453784 um^2

11649820000: global: Timer #0 started at tick 11649820000
11653804500: system.acctest.edge_tracking0_dma: SRC:0x0000000023010020, DST:0x00000000820ca0c0, LEN:16384
11654167500: global: Timer #0 stopped at tick 11654167500. Duration: 4347500
11654183750: global: Number of accelerators running = 1
11655436500: system.acctest.edge_tracking0_dma: Transfer completed in 1.632 us
11655513125: global: Timer #0 started at tick 11655513125
11655704375: global: DAG ID = 0
11655718125: global: Node ID = 11
11655741875: global: DAG execution time = 8102
11655755000: global: DAG deadline difference = -8565
11655772500: global: Node deadline difference = -8565
11655785000: global: Predicted memory time / byte = 0 us/byte
11655797500: global: Predicted memory time = 0 us
11655810000: global: Predicted memory time / byte = 0 us/byte
11655822500: global: Predicted memory time = 0 us
11655835000: global: Predicted memory time / byte = 0 us/byte
11655847500: global: Predicted memory time = 0 us
11655860000: global: Predicted memory time / byte = 0 us/byte
11655872500: global: Predicted memory time = 0 us
11655885000: global: Predicted memory access size = 0
11655897500: global: Predicted memory access size = 65536
11655910000: global: Predicted memory access size = 0
11655922500: global: Predicted memory access size = 16384
11656019375: global: Timer #0 stopped at tick 11656019375. Duration: 506250
11656035625: global: Number of accelerators running = 0
11656115625: global: Number of forwards = 61
11656250000: global: Number of colocations = 57
11656269375: global: Number of DAG deadlines met = 1
11656288750: global: Number of node deadlines met = 126
11656456250: global: Total predicted compute time = 0 us
Exiting @ tick 11656665625 because m5_exit instruction encountered
