gem5 Simulator System.  http://gem5.org
gem5 is copyrighted software; use the --copyright option for details.

gem5 compiled Oct  4 2023 20:26:28
gem5 started Oct  6 2023 11:13:08
gem5 executing on node4x10a.cs.rochester.edu, pid 55016
command line: /u/sgupta45/gem5-SALAM/build/ARM/gem5_bus.opt --debug-flags=HWACC,CommInterface,LLVMInterface,StreamDma,NoncoherentDma,TickTimer,SchedulerStats --outdir=BM_ARM_OUT/comb_pred_3_opt_flush_opt_fwd/canny_1_deblur_1_gru_1_harris_0_lstm_0_ELF_MEM_PRED_AVERAGE_15_dm_false configs/SALAM/scheduler.py --mem-size=4GB --mem-type=LPDDR5_6400_1x16_BG_BL32 --kernel=/u/sgupta45/gem5-SALAM/benchmarks/scheduler/sw/bin_comb_pred_3/canny_1_deblur_1_gru_1_harris_0_lstm_0_ELF_MEM_PRED_AVERAGE_15_dm_false.elf --vans-config-path=/u/sgupta45/VANS/config --disk-image=/u/sgupta45/gem5-SALAM/baremetal/common/fake.iso --machine-type=VExpress_GEM5_V1 --dtb-file=none --bare-metal --cpu-type=ex5_LITTLE --cpu-clock=1.6GHz --accpath=/u/sgupta45/gem5-SALAM/benchmarks --caches --cacheline_size=64 --l1d_size=32kB --l1d_assoc=4 --l1i_size=32kB --l1i_assoc=2

info: Standard input is not a terminal, disabling listeners.
Global frequency set at 1000000000000 ticks per second
Cycle Counts Loaded!
Cycle Counts Loaded!
Cycle Counts Loaded!
Cycle Counts Loaded!
Cycle Counts Loaded!
Cycle Counts Loaded!
Cycle Counts Loaded!
Cycle Counts Loaded!
Cycle Counts Loaded!
Cycle Counts Loaded!
Cycle Counts Loaded!
**** REAL SIMULATION ****
3838750: global: Timer #8 started at tick 3838750
7260625: global: Timer #8 stopped at tick 7260625. Duration: 3421875
7330625: global: Timer #8 started at tick 7330625
16689375: global: Timer #8 stopped at tick 16689375. Duration: 9358750
17091875: global: Timer #8 started at tick 17091875
29543750: global: Timer #8 stopped at tick 29543750. Duration: 12451875
30230000: global: Timer #8 started at tick 30230000
30283750: global: Timer #8 stopped at tick 30283750. Duration: 53750
30309375: global: Timer #8 started at tick 30309375
42766250: global: Timer #8 stopped at tick 42766250. Duration: 12456875
45771875: global: Timer #8 started at tick 45771875
45807500: global: Timer #8 stopped at tick 45807500. Duration: 35625
45833750: global: Timer #8 started at tick 45833750
45863125: global: Timer #8 stopped at tick 45863125. Duration: 29375
45923125: global: Timer #8 started at tick 45923125
58376250: global: Timer #8 stopped at tick 58376250. Duration: 12453125
58395000: global: Timer #8 started at tick 58395000
70855625: global: Timer #8 stopped at tick 70855625. Duration: 12460625
70873125: global: Timer #8 started at tick 70873125
83336250: global: Timer #8 stopped at tick 83336250. Duration: 12463125
83353750: global: Timer #8 started at tick 83353750
95811875: global: Timer #8 stopped at tick 95811875. Duration: 12458125
95828750: global: Timer #8 started at tick 95828750
108282500: global: Timer #8 stopped at tick 108282500. Duration: 12453750
108300000: global: Timer #8 started at tick 108300000
120755625: global: Timer #8 stopped at tick 120755625. Duration: 12455625
120772500: global: Timer #8 started at tick 120772500
133226250: global: Timer #8 stopped at tick 133226250. Duration: 12453750
133706875: global: Timer #8 started at tick 133706875
146167500: global: Timer #8 stopped at tick 146167500. Duration: 12460625
146508125: global: Timer #8 started at tick 146508125
149647500: global: Timer #8 stopped at tick 149647500. Duration: 3139375
150616250: global: Timer #8 started at tick 150616250
150661250: global: Timer #8 stopped at tick 150661250. Duration: 45000
150678750: global: Timer #8 started at tick 150678750
150720000: global: Timer #8 stopped at tick 150720000. Duration: 41250
247373750: global: Timer #8 started at tick 247373750
259875000: global: Timer #8 stopped at tick 259875000. Duration: 12501250
259893750: global: Timer #8 started at tick 259893750
272347500: global: Timer #8 stopped at tick 272347500. Duration: 12453750
272365000: global: Timer #8 started at tick 272365000
284820625: global: Timer #8 stopped at tick 284820625. Duration: 12455625
284908750: global: Timer #8 started at tick 284908750
297356250: global: Timer #8 stopped at tick 297356250. Duration: 12447500
298233125: global: Timer #8 started at tick 298233125
301467500: global: Timer #8 stopped at tick 301467500. Duration: 3234375
301484375: global: Timer #8 started at tick 301484375
310832500: global: Timer #8 stopped at tick 310832500. Duration: 9348125
311171250: global: Timer #8 started at tick 311171250
323634375: global: Timer #8 stopped at tick 323634375. Duration: 12463125
329419375: global: Timer #8 started at tick 329419375
341881250: global: Timer #8 stopped at tick 341881250. Duration: 12461875
341900000: global: Timer #8 started at tick 341900000
354355625: global: Timer #8 stopped at tick 354355625. Duration: 12455625
354372500: global: Timer #8 started at tick 354372500
366826250: global: Timer #8 stopped at tick 366826250. Duration: 12453750
366844375: global: Timer #8 started at tick 366844375
379301250: global: Timer #8 stopped at tick 379301250. Duration: 12456875
379320000: global: Timer #8 started at tick 379320000
391775625: global: Timer #8 stopped at tick 391775625. Duration: 12455625
391792500: global: Timer #8 started at tick 391792500
404246250: global: Timer #8 stopped at tick 404246250. Duration: 12453750
404835625: global: Timer #8 started at tick 404835625
417294375: global: Timer #8 stopped at tick 417294375. Duration: 12458750
935398125: global: Timer #8 started at tick 935398125
1134421250: global: Timer #8 stopped at tick 1134421250. Duration: 199023125
1544515000: global: Timer #8 started at tick 1544515000
1743541250: global: Timer #8 stopped at tick 1743541250. Duration: 199026250
2153016875: global: Timer #8 started at tick 2153016875
2352030000: global: Timer #8 stopped at tick 2352030000. Duration: 199013125
2761001875: global: Timer #8 started at tick 2761001875
2960015000: global: Timer #8 stopped at tick 2960015000. Duration: 199013125
3369575000: global: Timer #8 started at tick 3369575000
3568590000: global: Timer #8 stopped at tick 3568590000. Duration: 199015000
3977540000: global: Timer #8 started at tick 3977540000
4176555000: global: Timer #8 stopped at tick 4176555000. Duration: 199015000
4586098125: global: Timer #8 started at tick 4586098125
4785115000: global: Timer #8 stopped at tick 4785115000. Duration: 199016875
5194791875: global: Timer #8 started at tick 5194791875
5393805000: global: Timer #8 stopped at tick 5393805000. Duration: 199013125
5396885625: global: Timer #4 started at tick 5396885625
5397218750: global: Timer #4 stopped at tick 5397218750. Duration: 333125
5397237500: global: Timer #5 started at tick 5397237500
5397345000: global: Timer #5 stopped at tick 5397345000. Duration: 107500
5398400625: global: Timer #2 started at tick 5398400625
5398854375: global: Timer #2 stopped at tick 5398854375. Duration: 453750
5401289375: global: Timer #4 started at tick 5401289375
5401416875: global: Timer #4 stopped at tick 5401416875. Duration: 127500
5401432500: global: Timer #5 started at tick 5401432500
5401449375: global: Timer #5 stopped at tick 5401449375. Duration: 16875
5401694375: global: Timer #2 started at tick 5401694375
5401803125: global: Timer #2 stopped at tick 5401803125. Duration: 108750
5405596875: global: Timer #4 started at tick 5405596875
5405748125: global: Timer #4 stopped at tick 5405748125. Duration: 151250
5405763750: global: Timer #5 started at tick 5405763750
5405780625: global: Timer #5 stopped at tick 5405780625. Duration: 16875
5406051250: global: Timer #2 started at tick 5406051250
5406110000: global: Timer #2 stopped at tick 5406110000. Duration: 58750
5423078125: global: Timer #6 started at tick 5423078125
5423600625: global: Timer #7 started at tick 5423600625
5424361625: system.acctest.elem_matrix0_dma: SRC:0x000000008230ad00, DST:0x0000000024000020, LEN:65536
5424613750: global: Timer #7 stopped at tick 5424613750. Duration: 1013125
5424729375: global: Timer #6 stopped at tick 5424729375. Duration: 1651250
5424908125: global: Timer #6 started at tick 5424908125
5425200625: global: Timer #7 started at tick 5425200625
5425925000: system.acctest.isp0_dma: SRC:0x00000000821888c0, DST:0x0000000027000020, LEN:16900
5426250000: global: Timer #7 stopped at tick 5426250000. Duration: 1049375
5426323125: global: Timer #6 stopped at tick 5426323125. Duration: 1415000
5426395625: global: Number of accelerators running = 2
5429597000: system.acctest.isp0_dma: Transfer completed in 3.672 us
5430225625: global: Timer #0 started at tick 5430225625
5431771250: global: Timer #1 started at tick 5431771250
5432472500: global: Timer #1 stopped at tick 5432472500. Duration: 701250
5433093750: global: Timer #6 started at tick 5433093750
5433393750: global: Timer #7 started at tick 5433393750
5433924375: global: Timer #7 stopped at tick 5433924375. Duration: 530625
5434217500: global: Timer #6 stopped at tick 5434217500. Duration: 1123750
5434583750: global: Timer #0 stopped at tick 5434583750. Duration: 4358125
5434602500: global: Number of accelerators running = 2
5436724625: system.acctest.elem_matrix0_dma: Transfer completed in 12.363 us
5436861875: global: Timer #0 started at tick 5436861875
5437276875: global: Timer #1 started at tick 5437276875
5437504375: global: Timer #1 stopped at tick 5437504375. Duration: 227500
5437860625: global: Timer #6 started at tick 5437860625
5438396875: global: Timer #7 started at tick 5438396875
5439042375: system.acctest.elem_matrix0_dma: SRC:0x000000008220ab40, DST:0x0000000024010020, LEN:65536
5439173125: global: Timer #7 stopped at tick 5439173125. Duration: 776250
5439248750: global: Timer #6 stopped at tick 5439248750. Duration: 1388125
5439357500: global: Timer #0 stopped at tick 5439357500. Duration: 2495625
5439371875: global: Number of accelerators running = 2
5450989375: system.acctest.elem_matrix0_dma: Transfer completed in 11.947 us
5451064375: global: Timer #0 started at tick 5451064375
5451434375: global: Timer #1 started at tick 5451434375
5451650000: global: Timer #1 stopped at tick 5451650000. Duration: 215625
5451950625: global: Timer #6 started at tick 5451950625
5452036250: global: Timer #7 started at tick 5452036250
5453065000: global: Timer #7 stopped at tick 5453065000. Duration: 1028750
5453157500: global: Timer #6 stopped at tick 5453157500. Duration: 1206875
5453285625: global: Timer #0 stopped at tick 5453285625. Duration: 2221250
5453300000: global: Number of accelerators running = 2
********************************************************************************
system.acctest.elem_matrix0.compute
   ========= Performance Analysis =============
   Setup Time:                      3.51836seconds
   Simulation Time:                 310.719seconds
   System Clock:                    1GHz
   Transistor Latency:              1ns
   Runtime:                         10932 cycles
   Runtime:                         10.932 us
   Stalls:                          0 cycles
   Executed Nodes:                  10931 cycles

********************************************************************************
   ========= Performance Analysis =================
   Setup Time:                      3.51836e+09ns
   Simulation Time:                 3.10719e+11ns
   System Clock:                    1GHz
   Transistor Latency:              0ns
   Runtime:                         10932 cycles
   Runtime:                         1.0932e-06 seconds
   Stalls:                          0 cycles
       Load Only:                   0 cycles
       Store Only:                  0 cycles
       Compute Only:                0 cycles
       Compute & Store:             0 cycles
       Load & Store:                0 cycles
       Load & Compute:              0 cycles
       Load & Compute & Store:      0 cycles
   Executed Nodes:                  10931 cycles
       Load Only:                   0 cycles
       Store Only:                  5 cycles
       Compute Only:                1 cycles
       Compute & Store:             21 cycles
       Load & Store:                0 cycles
       Load & Compute:              7 cycles
       Load & Compute & Store:      10897 cycles

   ========= Runtime FU's ========= (Max | Avg) ===
   Counter FU's:                      32 | 0.046838
   Integer Add/Sub FU's:               0 | 0.000000
   Integer Mul/Div FU's:               0 | 0.000000
   Integer Shifter FU's:               0 | 0.000000
   Integer Bitwise FU's:               1 | 0.000091
   Floating Point Float Add/Sub:      34 | 0.044252
   Floating Point Double Add/Sub:      0 | 0.000000
   Floating Point Float Mul/Div:       0 | 0.000000
   Floating Point Double Mul/Div:      0 | 0.000000
   0 Cycle Compare FU's:             102 | 0.046974
   GEP Instruction FU's:              96 | 0.046835
   Type Conversion FU's:               7 | 0.006782

   ========= Static FU's ==========================
   Counter FU's:                    0
   Integer Add/Sub FU's:            0
   Integer Mul/Div FU's:            0
   Integer Shifter FU's:            0
   Integer Bitwise FU's:            0
   Floating Point Float Add/Sub:    0
   Floating Point Double Add/Sub:   0
   Floating Point Float Mul/Div:    0
   Floating Point Double Mul/Div:   0
   0 Cycle Compare FU's:            0
   GEP Instruction FU's:            0
   Type Conversion FU's:            0
   Other:                           0

   ========= Pipeline Register Usage =============
   Total Number of Registers:       5641
   Max Register Usage Per Cycle:    138
   Avg Register Usage Per Cycle:    12.130992
   Avg Register Size (Bytes):       5.980606

   ========= Memory Configuration =================
   Cache Bus Ports:                 0
   Shared Cache Size:               0kB
   Local Bus Ports:                 0
   Private SPM Size:                256kB
   Private Read Ports:              0
   Private Write Ports:             0
   Private Read Bus Width:          64
   Private Write Bus Width:         64
       Memory Reads:                0
       Memory Writes:               0
   ========= Power Analysis ======================
   FU Leakage Power:                0.519269 mW 
   FU Dynamic Power:                0.154621 mW 
   FU Total Power:                  0.673890 mW 

   Registers Leakage Power:          0.005281 mW 
   Registers Dynamic Power:          0.015326 mW 
       Register Reads (Bits):        132616
       Register Writes (Bits):       133658
   Registers Total Power:            0.020607 mW

   SPM Leakage Power:               0.104100 mW
   SPM Read Dynamic Power:          1.997266 mW
   SPM Write Dynamic Power:         0.953321 mW
   SPM Total Power:                 3.054688 mW

   SPM Energy Per Read Access:      0.170493 nJ
   SPM Energy Per Write Access:     0.218190 nJ

   Cache Leakage Power:             0.000000 mW
   Cache Read Dynamic Power:        0.000000 mW
   Cache Write Dynamic Power:       0.000000 mW
   Cache Total Power:               0.000000 mW

   Accelerator Power:               0.694497 mW
   Accelerator Power (SPM):         3.749184 mW
   Accelerator Power (Cache):       0.694497 mW

   ========= Area Analysis =======================
   FU Area:                         70212.562500 um^2 (0.070213 mm^2)
   Register Area:                   429.271088 um^2 (0.000429 mm^2)
   SPM Area:                        2177.365505 um^2 (0.002177 mm^2)
   Cache Area:                      0.000000 um^2 (0.000000 mm^2)

   Accelerator Area:                70641.835938 um^2 (0.070642 mm^2)
   Accelerator Area (SPM):          72819.201442 um^2 (0.072819 mm^2)
   Accelerator Area (Cache):        70641.835938 um^2 (0.070642 mm^2)

   ========= SPM Resizing  =======================
   SPM Optimized Leakage Power:     0.004248 mW
   SPM Opt Area:                    178.524902 um^2

5463950000: global: Timer #0 started at tick 5463950000
5464290000: global: Timer #3 started at tick 5464290000
5464383750: global: Timer #4 started at tick 5464383750
5464569375: global: Timer #4 stopped at tick 5464569375. Duration: 185625
5464630625: global: Timer #5 started at tick 5464630625
5464734375: global: Timer #5 stopped at tick 5464734375. Duration: 103750
5465170000: global: Timer #3 stopped at tick 5465170000. Duration: 880000
5465258125: global: Timer #3 started at tick 5465258125
5465375625: global: Timer #4 started at tick 5465375625
5465423750: global: Timer #4 stopped at tick 5465423750. Duration: 48125
5465439375: global: Timer #5 started at tick 5465439375
5465458125: global: Timer #5 stopped at tick 5465458125. Duration: 18750
5465856250: global: Timer #3 stopped at tick 5465856250. Duration: 598125
5466199375: global: Timer #2 started at tick 5466199375
5466874375: global: Timer #2 stopped at tick 5466874375. Duration: 675000
5466920625: global: Timer #2 started at tick 5466920625
5467101250: global: Timer #2 stopped at tick 5467101250. Duration: 180625
5467210625: global: Timer #4 started at tick 5467210625
5467349375: global: Timer #4 stopped at tick 5467349375. Duration: 138750
5468355000: global: Timer #7 started at tick 5468355000
********************************************************************************
system.acctest.isp0.compute
   ========= Performance Analysis =============
   Setup Time:                      0.273878seconds
   Simulation Time:                 655.672313seconds
   System Clock:                    1.000000GHz
   Transistor Latency:              1ns
   Runtime:                         34882 cycles
   Runtime:                         34.882000 us
   Stalls:                          1 cycles
   Executed Nodes:                  34880 cycles

********************************************************************************
   ========= Performance Analysis =================
   Setup Time:                      273878133.000000ns
   Simulation Time:                 655672313238.000000ns
   System Clock:                    1.000000GHz
   Transistor Latency:              0ns
   Runtime:                         34882 cycles
   Runtime:                         0.000003 seconds
   Stalls:                          1 cycles
       Load Only:                   0 cycles
       Store Only:                  1 cycles
       Compute Only:                0 cycles
       Compute & Store:             0 cycles
       Load & Store:                0 cycles
       Load & Compute:              0 cycles
       Load & Compute & Store:      0 cycles
   Executed Nodes:                  34880 cycles
       Load Only:                   0 cycles
       Store Only:                  1 cycles
       Compute Only:                3453 cycles
       Compute & Store:             19014 cycles
       Load & Store:                0 cycles
       Load & Compute:              2467 cycles
       Load & Compute & Store:      9945 cycles

   ========= Runtime FU's ========= (Max | Avg) ===
   Counter FU's:                      10 | 0.118075
   Integer Add/Sub FU's:              76 | 0.082082
   Integer Mul/Div FU's:              11 | 0.043888
   Integer Shifter FU's:              42 | 0.055974
   Integer Bitwise FU's:               4 | 0.059443
   Floating Point Float Add/Sub:      53 | 0.116839
   Floating Point Double Add/Sub:      0 | 0.000000
   Floating Point Float Mul/Div:      76 | 0.625626
   Floating Point Double Mul/Div:      0 | 0.000000
   0 Cycle Compare FU's:              85 | 0.664984
   GEP Instruction FU's:              33 | 0.117424
   Type Conversion FU's:             110 | 0.379700

   ========= Static FU's ==========================
   Counter FU's:                    0
   Integer Add/Sub FU's:            0
   Integer Mul/Div FU's:            0
   Integer Shifter FU's:            0
   Integer Bitwise FU's:            0
   Floating Point Float Add/Sub:    0
   Floating Point Double Add/Sub:   0
   Floating Point Float Mul/Div:    0
   Floating Point Double Mul/Div:   0
   0 Cycle Compare FU's:            0
   GEP Instruction FU's:            0
   Type Conversion FU's:            0
   Other:                           0

   ========= Pipeline Register Usage =============
   Total Number of Registers:       1620
   Max Register Usage Per Cycle:    151
   Avg Register Usage Per Cycle:    58.744711
   Avg Register Size (Bytes):       5.073357

   ========= Memory Configuration =================
   Cache Bus Ports:                 0
   Shared Cache Size:               0kB
   Local Bus Ports:                 0
   Private SPM Size:                112kB
   Private Read Ports:              0
   Private Write Ports:             0
   Private Read Bus Width:          64
   Private Write Bus Width:         64
       Memory Reads:                0
       Memory Writes:               0
   ========= Power Analysis ======================
   FU Leakage Power:                1.637787 mW 
   FU Dynamic Power:                9.655087 mW 
   FU Total Power:                  11.292874 mW 

   Registers Leakage Power:          0.021654 mW 
   Registers Dynamic Power:          3.085961 mW 
       Register Reads (Bits):        2049133
       Register Writes (Bits):       2049168
   Registers Total Power:            3.107615 mW

   SPM Leakage Power:               0.061081 mW
   SPM Read Dynamic Power:          11.103730 mW
   SPM Write Dynamic Power:         7.385230 mW
   SPM Total Power:                 18.550041 mW

   SPM Energy Per Read Access:      0.142059 nJ
   SPM Energy Per Write Access:     0.255513 nJ

   Cache Leakage Power:             0.000000 mW
   Cache Read Dynamic Power:        0.000000 mW
   Cache Write Dynamic Power:       0.000000 mW
   Cache Total Power:               0.000000 mW

   Accelerator Power:               14.400490 mW
   Accelerator Power (SPM):         32.950531 mW
   Accelerator Power (Cache):       14.400490 mW

   ========= Area Analysis =======================
   FU Area:                         176023.796875 um^2 (0.176024 mm^2)
   Register Area:                   1760.064941 um^2 (0.001760 mm^2)
   SPM Area:                        2165.394891 um^2 (0.002165 mm^2)
   Cache Area:                      0.000000 um^2 (0.000000 mm^2)

   Accelerator Area:                177783.859375 um^2 (0.177784 mm^2)
   Accelerator Area (SPM):          179949.254266 um^2 (0.179949 mm^2)
   Accelerator Area (Cache):        177783.859375 um^2 (0.177784 mm^2)

   ========= SPM Resizing  =======================
   SPM Optimized Leakage Power:     0.005964 mW
   SPM Opt Area:                    422.108128 um^2

5469008750: system.acctest.elem_matrix0_dma: SRC:0x0000000024030020, DST:0x000000008221ab40, LEN:65536
5469156875: global: Timer #7 stopped at tick 5469156875. Duration: 801875
5469501875: global: Timer #0 stopped at tick 5469501875. Duration: 5551875
5469516250: global: Number of accelerators running = 2
5469637500: global: Timer #0 started at tick 5469637500
5470175625: global: Timer #3 started at tick 5470175625
5470348125: global: Timer #4 started at tick 5470348125
5470383125: global: Timer #4 stopped at tick 5470383125. Duration: 35000
5470394375: global: Timer #5 started at tick 5470394375
5470409375: global: Timer #5 stopped at tick 5470409375. Duration: 15000
5470652500: global: Timer #3 stopped at tick 5470652500. Duration: 476875
5470720000: global: Timer #2 started at tick 5470720000
5470854375: global: Timer #2 stopped at tick 5470854375. Duration: 134375
5471189375: global: DAG ID = 1
5471207500: global: Node ID = 0
5471270000: global: Node deadline difference = -246
5471288125: global: Predicted memory time / byte = 7.27596e-05 us/byte
5471306250: global: Predicted memory time = 1.22964 us
5471324375: global: Predicted memory time / byte = 7.27596e-05 us/byte
5471342500: global: Predicted memory time = 3.57628 us
5471405000: global: Predicted memory time / byte = 0.000262367 us/byte
5471423125: global: Predicted memory time = 4.434 us
5471441250: global: Predicted memory time / byte = 0 us/byte
5471459375: global: Predicted memory time = 0 us
5471477500: global: Predicted memory access size = 16900
5471495625: global: Predicted memory access size = 16900
5471557500: global: Predicted memory access size = 49152
5471576250: global: Predicted memory access size = 0
5471833125: global: Timer #6 started at tick 5471833125
5472189375: global: Timer #7 started at tick 5472189375
5472838000: system.acctest.grayscale0_dma: SRC:0x0000000027010224, DST:0x0000000025000020, LEN:49152
5473153125: global: Timer #7 stopped at tick 5473153125. Duration: 963750
5473305625: global: Timer #6 stopped at tick 5473305625. Duration: 1472500
5473442500: global: Timer #6 started at tick 5473442500
5474335625: global: Timer #7 started at tick 5474335625
5475051000: system.acctest.isp0_dma: SRC:0x0000000082092e80, DST:0x0000000027000020, LEN:16900
5475199375: global: Timer #7 stopped at tick 5475199375. Duration: 863750
5475273125: global: Timer #6 stopped at tick 5475273125. Duration: 1830625
5475321875: global: Timer #0 stopped at tick 5475321875. Duration: 5684375
5475336250: global: Number of accelerators running = 3
5478046750: system.acctest.elem_matrix0_dma: Transfer completed in 9.038 us
5478131250: global: Timer #0 started at tick 5478131250
5478553125: global: Timer #1 started at tick 5478553125
5478975625: global: Timer #1 stopped at tick 5478975625. Duration: 422500
5479257500: global: DAG ID = 2
5479275625: global: Node ID = 0
5479342500: global: Node deadline difference = -2264
5479360625: global: Predicted memory time / byte = 7.27596e-05 us/byte
5479378750: global: Predicted memory time = 9.53674 us
5479396875: global: Predicted memory time / byte = 7.27596e-05 us/byte
5479415000: global: Predicted memory time = 4.76837 us
5479433125: global: Predicted memory time / byte = 0.000185478 us/byte
5479451250: global: Predicted memory time = 24.311 us
5479469375: global: Predicted memory time / byte = 0.000138641 us/byte
5479487500: global: Predicted memory time = 9.086 us
5479505625: global: Predicted memory access size = 131072
5479523750: global: Predicted memory access size = 131072
5479541875: global: Predicted memory access size = 65536
5479560000: global: Predicted memory access size = 65536
5479662500: global: Timer #6 started at tick 5479662500
5480037000: system.acctest.isp0_dma: Transfer completed in 4.986 us
5480265000: global: Timer #7 started at tick 5480265000
5480925000: system.acctest.elem_matrix0_dma: SRC:0x00000000821ca9c0, DST:0x0000000024010020, LEN:65536
5481057500: global: Timer #7 stopped at tick 5481057500. Duration: 792500
5481086250: global: Timer #6 stopped at tick 5481086250. Duration: 1423750
5481187500: global: Timer #0 stopped at tick 5481187500. Duration: 3056250
5481201875: global: Number of accelerators running = 3
5481318125: global: Timer #0 started at tick 5481318125
5481655000: global: Timer #1 started at tick 5481655000
5481840625: global: Timer #1 stopped at tick 5481840625. Duration: 185625
5482146875: global: Timer #6 started at tick 5482146875
5482191250: global: Timer #7 started at tick 5482191250
5482708125: global: Timer #7 stopped at tick 5482708125. Duration: 516875
5482733750: global: Timer #6 stopped at tick 5482733750. Duration: 586875
5482857500: global: Timer #0 stopped at tick 5482857500. Duration: 1539375
5482871875: global: Number of accelerators running = 3
5485882000: system.acctest.grayscale0_dma: Transfer completed in 13.044 us
5485976875: global: Timer #0 started at tick 5485976875
5486306875: global: Timer #1 started at tick 5486306875
5486507500: global: Timer #1 stopped at tick 5486507500. Duration: 200625
5486795000: global: Timer #6 started at tick 5486795000
5486899375: global: Timer #7 started at tick 5486899375
5487306250: global: Timer #7 stopped at tick 5487306250. Duration: 406875
5487483750: global: Timer #6 stopped at tick 5487483750. Duration: 688750
5487591250: global: Timer #0 stopped at tick 5487591250. Duration: 1614375
5487605625: global: Number of accelerators running = 3
5492868000: system.acctest.elem_matrix0_dma: Transfer completed in 11.943 us
5492951875: global: Timer #0 started at tick 5492951875
5493292500: global: Timer #1 started at tick 5493292500
5493468750: global: Timer #1 stopped at tick 5493468750. Duration: 176250
5493700000: global: Timer #6 started at tick 5493700000
5493780625: global: Timer #7 started at tick 5493780625
5494803125: global: Timer #7 stopped at tick 5494803125. Duration: 1022500
5495133750: global: Timer #6 stopped at tick 5495133750. Duration: 1433750
5495235625: global: Timer #0 stopped at tick 5495235625. Duration: 2283750
5495250000: global: Number of accelerators running = 3
********************************************************************************
system.acctest.grayscale0.compute
   ========= Performance Analysis =============
   Setup Time:                      0.016285seconds
   Simulation Time:                 466.448126seconds
   System Clock:                    1.000000GHz
   Transistor Latency:              1ns
   Runtime:                         10263 cycles
   Runtime:                         10.263000 us
   Stalls:                          1 cycles
   Executed Nodes:                  10261 cycles

********************************************************************************
   ========= Performance Analysis =================
   Setup Time:                      16284806.000000ns
   Simulation Time:                 466448126139.000000ns
   System Clock:                    1.000000GHz
   Transistor Latency:              0ns
   Runtime:                         10263 cycles
   Runtime:                         0.000001 seconds
   Stalls:                          1 cycles
       Load Only:                   0 cycles
       Store Only:                  1 cycles
       Compute Only:                0 cycles
       Compute & Store:             0 cycles
       Load & Store:                0 cycles
       Load & Compute:              0 cycles
       Load & Compute & Store:      0 cycles
   Executed Nodes:                  10261 cycles
       Load Only:                   0 cycles
       Store Only:                  1 cycles
       Compute Only:                88 cycles
       Compute & Store:             344 cycles
       Load & Store:                0 cycles
       Load & Compute:              1981 cycles
       Load & Compute & Store:      7847 cycles

   ========= Runtime FU's ========= (Max | Avg) ===
   Counter FU's:                      24 | 0.199556
   Integer Add/Sub FU's:               0 | 0.000000
   Integer Mul/Div FU's:               8 | 0.199552
   Integer Shifter FU's:               0 | 0.000000
   Integer Bitwise FU's:               1 | 0.000097
   Floating Point Float Add/Sub:      49 | 0.114264
   Floating Point Double Add/Sub:      0 | 0.000000
   Floating Point Float Mul/Div:      42 | 0.114129
   Floating Point Double Mul/Div:      0 | 0.000000
   0 Cycle Compare FU's:               9 | 0.066626
   GEP Instruction FU's:              36 | 0.177452
   Type Conversion FU's:              76 | 0.401969

   ========= Static FU's ==========================
   Counter FU's:                    0
   Integer Add/Sub FU's:            0
   Integer Mul/Div FU's:            0
   Integer Shifter FU's:            0
   Integer Bitwise FU's:            0
   Floating Point Float Add/Sub:    0
   Floating Point Double Add/Sub:   0
   Floating Point Float Mul/Div:    0
   Floating Point Double Mul/Div:   0
   0 Cycle Compare FU's:            0
   GEP Instruction FU's:            0
   Type Conversion FU's:            0
   Other:                           0

   ========= Pipeline Register Usage =============
   Total Number of Registers:       235
   Max Register Usage Per Cycle:    90
   Avg Register Usage Per Cycle:    33.924291
   Avg Register Size (Bytes):       5.841147

   ========= Memory Configuration =================
   Cache Bus Ports:                 0
   Shared Cache Size:               0kB
   Local Bus Ports:                 0
   Private SPM Size:                176kB
   Private Read Ports:              0
   Private Write Ports:             0
   Private Read Bus Width:          64
   Private Write Bus Width:         64
       Memory Reads:                0
       Memory Writes:               0
   ========= Power Analysis ======================
   FU Leakage Power:                1.178269 mW 
   FU Dynamic Power:                0.617392 mW 
   FU Total Power:                  1.795662 mW 

   Registers Leakage Power:          0.014185 mW 
   Registers Dynamic Power:          0.101057 mW 
       Register Reads (Bits):        348165
       Register Writes (Bits):       348168
   Registers Total Power:            0.115242 mW

   SPM Leakage Power:               0.089881 mW
   SPM Read Dynamic Power:          6.997296 mW
   SPM Write Dynamic Power:         2.062375 mW
   SPM Total Power:                 9.149552 mW

   SPM Energy Per Read Access:      0.161778 nJ
   SPM Energy Per Write Access:     0.205661 nJ

   Cache Leakage Power:             0.000000 mW
   Cache Read Dynamic Power:        0.000000 mW
   Cache Write Dynamic Power:       0.000000 mW
   Cache Total Power:               0.000000 mW

   Accelerator Power:               1.910904 mW
   Accelerator Power (SPM):         11.060456 mW
   Accelerator Power (Cache):       1.910904 mW

   ========= Area Analysis =======================
   FU Area:                         143348.187500 um^2 (0.143348 mm^2)
   Register Area:                   1152.968140 um^2 (0.001153 mm^2)
   SPM Area:                        3573.642862 um^2 (0.003574 mm^2)
   Cache Area:                      0.000000 um^2 (0.000000 mm^2)

   Accelerator Area:                144501.156250 um^2 (0.144501 mm^2)
   Accelerator Area (SPM):          148074.799112 um^2 (0.148075 mm^2)
   Accelerator Area (Cache):        144501.156250 um^2 (0.144501 mm^2)

   ========= SPM Resizing  =======================
   SPM Optimized Leakage Power:     0.003633 mW
   SPM Opt Area:                    364.024374 um^2

5497536250: global: Timer #0 started at tick 5497536250
5497896875: global: Timer #3 started at tick 5497896875
5497977500: global: Timer #4 started at tick 5497977500
5498100000: global: Timer #4 stopped at tick 5498100000. Duration: 122500
5498111250: global: Timer #5 started at tick 5498111250
5498126250: global: Timer #5 stopped at tick 5498126250. Duration: 15000
5498376250: global: Timer #3 stopped at tick 5498376250. Duration: 479375
5498861875: global: Timer #2 started at tick 5498861875
5498931875: global: Timer #2 stopped at tick 5498931875. Duration: 70000
5499424375: global: Timer #7 started at tick 5499424375
5500067375: system.acctest.grayscale0_dma: SRC:0x000000002501c020, DST:0x0000000082198c80, LEN:65536
5500220625: global: Timer #7 stopped at tick 5500220625. Duration: 796250
5500425625: global: Timer #6 started at tick 5500425625
5500905625: global: Timer #7 started at tick 5500905625
5501692000: system.acctest.convolution0_dma: SRC:0x000000002501c020, DST:0x0000000022000020, LEN:65536
5501996875: global: Timer #7 stopped at tick 5501996875. Duration: 1091250
5502025625: global: Timer #6 stopped at tick 5502025625. Duration: 1600000
5502161875: global: Timer #0 stopped at tick 5502161875. Duration: 4625625
5502176250: global: Number of accelerators running = 4
********************************************************************************
system.acctest.elem_matrix0.compute
   ========= Performance Analysis =============
   Setup Time:                      4.000844seconds
   Simulation Time:                 499.295323seconds
   System Clock:                    1.000000GHz
   Transistor Latency:              1ns
   Runtime:                         10932 cycles
   Runtime:                         10.932000 us
   Stalls:                          1 cycles
   Executed Nodes:                  10930 cycles

********************************************************************************
   ========= Performance Analysis =================
   Setup Time:                      4000843718.000000ns
   Simulation Time:                 499295322695.000000ns
   System Clock:                    1.000000GHz
   Transistor Latency:              0ns
   Runtime:                         10932 cycles
   Runtime:                         0.000001 seconds
   Stalls:                          1 cycles
       Load Only:                   0 cycles
       Store Only:                  1 cycles
       Compute Only:                0 cycles
       Compute & Store:             0 cycles
       Load & Store:                0 cycles
       Load & Compute:              0 cycles
       Load & Compute & Store:      0 cycles
   Executed Nodes:                  10930 cycles
       Load Only:                   0 cycles
       Store Only:                  4 cycles
       Compute Only:                1 cycles
       Compute & Store:             21 cycles
       Load & Store:                0 cycles
       Load & Compute:              6 cycles
       Load & Compute & Store:      10898 cycles

   ========= Runtime FU's ========= (Max | Avg) ===
   Counter FU's:                      32 | 0.046838
   Integer Add/Sub FU's:               0 | 0.000000
   Integer Mul/Div FU's:               0 | 0.000000
   Integer Shifter FU's:               0 | 0.000000
   Integer Bitwise FU's:               1 | 0.000091
   Floating Point Float Add/Sub:       0 | 0.000000
   Floating Point Double Add/Sub:      0 | 0.000000
   Floating Point Float Mul/Div:      34 | 0.044252
   Floating Point Double Mul/Div:      0 | 0.000000
   0 Cycle Compare FU's:             102 | 0.046945
   GEP Instruction FU's:              96 | 0.046835
   Type Conversion FU's:               7 | 0.006782

   ========= Static FU's ==========================
   Counter FU's:                    0
   Integer Add/Sub FU's:            0
   Integer Mul/Div FU's:            0
   Integer Shifter FU's:            0
   Integer Bitwise FU's:            0
   Floating Point Float Add/Sub:    0
   Floating Point Double Add/Sub:   0
   Floating Point Float Mul/Div:    0
   Floating Point Double Mul/Div:   0
   0 Cycle Compare FU's:            0
   GEP Instruction FU's:            0
   Type Conversion FU's:            0
   Other:                           0

   ========= Pipeline Register Usage =============
   Total Number of Registers:       5641
   Max Register Usage Per Cycle:    137
   Avg Register Usage Per Cycle:    12.130992
   Avg Register Size (Bytes):       5.980606

   ========= Memory Configuration =================
   Cache Bus Ports:                 0
   Shared Cache Size:               0kB
   Local Bus Ports:                 0
   Private SPM Size:                256kB
   Private Read Ports:              0
   Private Write Ports:             0
   Private Read Bus Width:          64
   Private Write Bus Width:         64
       Memory Reads:                0
       Memory Writes:               0
   ========= Power Analysis ======================
   FU Leakage Power:                0.045377 mW 
   FU Dynamic Power:                0.142576 mW 
   FU Total Power:                  0.187953 mW 

   Registers Leakage Power:          0.005281 mW 
   Registers Dynamic Power:          0.015326 mW 
       Register Reads (Bits):        132616
       Register Writes (Bits):       133658
   Registers Total Power:            0.020607 mW

   SPM Leakage Power:               0.104100 mW
   SPM Read Dynamic Power:          2.785289 mW
   SPM Write Dynamic Power:         2.044305 mW
   SPM Total Power:                 4.933694 mW

   SPM Energy Per Read Access:      0.170493 nJ
   SPM Energy Per Write Access:     0.218190 nJ

   Cache Leakage Power:             0.000000 mW
   Cache Read Dynamic Power:        0.000000 mW
   Cache Write Dynamic Power:       0.000000 mW
   Cache Total Power:               0.000000 mW

   Accelerator Power:               0.208559 mW
   Accelerator Power (SPM):         5.142254 mW
   Accelerator Power (Cache):       0.208559 mW

   ========= Area Analysis =======================
   FU Area:                         5472.068359 um^2 (0.005472 mm^2)
   Register Area:                   429.271088 um^2 (0.000429 mm^2)
   SPM Area:                        2177.365505 um^2 (0.002177 mm^2)
   Cache Area:                      0.000000 um^2 (0.000000 mm^2)

   Accelerator Area:                5901.339355 um^2 (0.005901 mm^2)
   Accelerator Area (SPM):          8078.704860 um^2 (0.008079 mm^2)
   Accelerator Area (Cache):        5901.339355 um^2 (0.005901 mm^2)

   ========= SPM Resizing  =======================
   SPM Optimized Leakage Power:     0.004248 mW
   SPM Opt Area:                    178.524902 um^2

5505703125: global: Timer #0 started at tick 5505703125
5505958125: global: Timer #3 started at tick 5505958125
5505984375: global: Timer #4 started at tick 5505984375
5506027500: global: Timer #4 stopped at tick 5506027500. Duration: 43125
5506038750: global: Timer #5 started at tick 5506038750
5506053750: global: Timer #5 stopped at tick 5506053750. Duration: 15000
5506283125: global: Timer #3 stopped at tick 5506283125. Duration: 325000
5506344375: global: Timer #2 started at tick 5506344375
5506446250: global: Timer #2 stopped at tick 5506446250. Duration: 101875
5506697500: global: DAG ID = 2
5506710000: global: Node ID = 5
5506723125: global: Node deadline difference = -2294
5506735625: global: Predicted memory time / byte = 0.00019426 us/byte
5506748125: global: Predicted memory time = 25.462 us
5506760625: global: Predicted memory time / byte = 0.00019426 us/byte
5506773125: global: Predicted memory time = 12.731 us
5506785625: global: Predicted memory time / byte = 0.000182266 us/byte
5506798125: global: Predicted memory time = 11.945 us
5506810625: global: Predicted memory time / byte = 0 us/byte
5506823125: global: Predicted memory time = 0 us
5506835625: global: Predicted memory access size = 131072
5506848125: global: Predicted memory access size = 65536
5506860625: global: Predicted memory access size = 65536
5506873125: global: Predicted memory access size = 0
5506948125: global: Timer #6 started at tick 5506948125
5507060625: global: Timer #7 started at tick 5507060625
5507739000: system.acctest.elem_matrix0_dma: SRC:0x00000000821da9c0, DST:0x0000000024010020, LEN:65536
5507867500: global: Timer #7 stopped at tick 5507867500. Duration: 806875
5507885625: global: Timer #6 stopped at tick 5507885625. Duration: 937500
5507981875: global: Timer #0 stopped at tick 5507981875. Duration: 2278750
5507996250: global: Number of accelerators running = 4
5511131375: system.acctest.grayscale0_dma: Transfer completed in 11.064 us
5511216250: global: Timer #0 started at tick 5511216250
5511551875: global: Timer #1 started at tick 5511551875
5511743125: global: Timer #1 stopped at tick 5511743125. Duration: 191250
5511950000: global: DAG ID = 1
5511962500: global: Node ID = 1
5511981875: global: Node deadline difference = -243
5511994375: global: Predicted memory time / byte = 0.00019426 us/byte
5512006875: global: Predicted memory time = 9.54825 us
5512019375: global: Predicted memory time / byte = 0.00019426 us/byte
5512031875: global: Predicted memory time = 12.731 us
5512044375: global: Predicted memory time / byte = 0.000264587 us/byte
5512056875: global: Predicted memory time = 13.005 us
5512069375: global: Predicted memory time / byte = 0.000168625 us/byte
5512081875: global: Predicted memory time = 11.051 us
5512094375: global: Predicted memory access size = 49152
5512106875: global: Predicted memory access size = 49152
5512119375: global: Predicted memory access size = 65536
5512131875: global: Predicted memory access size = 65536
5512248750: global: Timer #0 stopped at tick 5512248750. Duration: 1032500
5512263125: global: Number of accelerators running = 3
********************************************************************************
system.acctest.isp0.compute
   ========= Performance Analysis =============
   Setup Time:                      0.609496seconds
   Simulation Time:                 1186.623730seconds
   System Clock:                    1.000000GHz
   Transistor Latency:              1ns
   Runtime:                         34881 cycles
   Runtime:                         34.881000 us
   Stalls:                          1 cycles
   Executed Nodes:                  34879 cycles

********************************************************************************
   ========= Performance Analysis =================
   Setup Time:                      609496201.000000ns
   Simulation Time:                 1186623730269.000000ns
   System Clock:                    1.000000GHz
   Transistor Latency:              0ns
   Runtime:                         34881 cycles
   Runtime:                         0.000003 seconds
   Stalls:                          1 cycles
       Load Only:                   0 cycles
       Store Only:                  1 cycles
       Compute Only:                0 cycles
       Compute & Store:             0 cycles
       Load & Store:                0 cycles
       Load & Compute:              0 cycles
       Load & Compute & Store:      0 cycles
   Executed Nodes:                  34879 cycles
       Load Only:                   0 cycles
       Store Only:                  1 cycles
       Compute Only:                3480 cycles
       Compute & Store:             18979 cycles
       Load & Store:                0 cycles
       Load & Compute:              2475 cycles
       Load & Compute & Store:      9944 cycles

   ========= Runtime FU's ========= (Max | Avg) ===
   Counter FU's:                      10 | 0.118079
   Integer Add/Sub FU's:              76 | 0.082073
   Integer Mul/Div FU's:              11 | 0.043889
   Integer Shifter FU's:              42 | 0.055977
   Integer Bitwise FU's:               4 | 0.059445
   Floating Point Float Add/Sub:      50 | 0.123031
   Floating Point Double Add/Sub:      0 | 0.000000
   Floating Point Float Mul/Div:      77 | 0.616522
   Floating Point Double Mul/Div:      0 | 0.000000
   0 Cycle Compare FU's:              90 | 0.627293
   GEP Instruction FU's:              33 | 0.117428
   Type Conversion FU's:             110 | 0.380191

   ========= Static FU's ==========================
   Counter FU's:                    0
   Integer Add/Sub FU's:            0
   Integer Mul/Div FU's:            0
   Integer Shifter FU's:            0
   Integer Bitwise FU's:            0
   Floating Point Float Add/Sub:    0
   Floating Point Double Add/Sub:   0
   Floating Point Float Mul/Div:    0
   Floating Point Double Mul/Div:   0
   0 Cycle Compare FU's:            0
   GEP Instruction FU's:            0
   Type Conversion FU's:            0
   Other:                           0

   ========= Pipeline Register Usage =============
   Total Number of Registers:       1620
   Max Register Usage Per Cycle:    150
   Avg Register Usage Per Cycle:    58.746395
   Avg Register Size (Bytes):       5.073357

   ========= Memory Configuration =================
   Cache Bus Ports:                 0
   Shared Cache Size:               0kB
   Local Bus Ports:                 0
   Private SPM Size:                112kB
   Private Read Ports:              0
   Private Write Ports:             0
   Private Read Bus Width:          64
   Private Write Bus Width:         64
       Memory Reads:                0
       Memory Writes:               0
   ========= Power Analysis ======================
   FU Leakage Power:                1.592023 mW 
   FU Dynamic Power:                9.621449 mW 
   FU Total Power:                  11.213471 mW 

   Registers Leakage Power:          0.021654 mW 
   Registers Dynamic Power:          3.085873 mW 
       Register Reads (Bits):        2049133
       Register Writes (Bits):       2049168
   Registers Total Power:            3.107527 mW

   SPM Leakage Power:               0.061081 mW
   SPM Read Dynamic Power:          15.102444 mW
   SPM Write Dynamic Power:         10.618341 mW
   SPM Total Power:                 25.781867 mW

   SPM Energy Per Read Access:      0.142059 nJ
   SPM Energy Per Write Access:     0.255513 nJ

   Cache Leakage Power:             0.000000 mW
   Cache Read Dynamic Power:        0.000000 mW
   Cache Write Dynamic Power:       0.000000 mW
   Cache Total Power:               0.000000 mW

   Accelerator Power:               14.320998 mW
   Accelerator Power (SPM):         40.102865 mW
   Accelerator Power (Cache):       14.320998 mW

   ========= Area Analysis =======================
   FU Area:                         169833.015625 um^2 (0.169833 mm^2)
   Register Area:                   1760.064941 um^2 (0.001760 mm^2)
   SPM Area:                        2165.394891 um^2 (0.002165 mm^2)
   Cache Area:                      0.000000 um^2 (0.000000 mm^2)

   Accelerator Area:                171593.078125 um^2 (0.171593 mm^2)
   Accelerator Area (SPM):          173758.473016 um^2 (0.173758 mm^2)
   Accelerator Area (Cache):        171593.078125 um^2 (0.171593 mm^2)

   ========= SPM Resizing  =======================
   SPM Optimized Leakage Power:     0.005889 mW
   SPM Opt Area:                    420.258807 um^2

5517562500: global: Timer #0 started at tick 5517562500
5518022500: global: Timer #3 started at tick 5518022500
5518060000: global: Timer #4 started at tick 5518060000
5518095000: global: Timer #4 stopped at tick 5518095000. Duration: 35000
5518110625: global: Timer #5 started at tick 5518110625
5518125625: global: Timer #5 stopped at tick 5518125625. Duration: 15000
5518331250: global: Timer #3 stopped at tick 5518331250. Duration: 308750
5518386875: global: Timer #2 started at tick 5518386875
5518445000: global: Timer #2 stopped at tick 5518445000. Duration: 58125
5518681250: global: DAG ID = 0
5518693750: global: Node ID = 0
5518706875: global: Node deadline difference = -13468
5518719375: global: Predicted memory time / byte = 7.27596e-05 us/byte
5518731875: global: Predicted memory time = 1.22964 us
5518744375: global: Predicted memory time / byte = 7.27596e-05 us/byte
5518756875: global: Predicted memory time = 3.57628 us
5518769375: global: Predicted memory time / byte = 0.000364911 us/byte
5518781875: global: Predicted memory time = 6.167 us
5518784000: system.acctest.convolution0_dma: Transfer completed in 17.092 us
5518794375: global: Predicted memory time / byte = 0 us/byte
5518806875: global: Predicted memory time = 0 us
5518819375: global: Predicted memory access size = 16900
5518831875: global: Predicted memory access size = 16900
5518844375: global: Predicted memory access size = 49152
5518856875: global: Predicted memory access size = 0
5518949375: global: Timer #6 started at tick 5518949375
5519019375: global: Timer #7 started at tick 5519019375
5519654500: system.acctest.grayscale0_dma: SRC:0x0000000027004224, DST:0x0000000025000020, LEN:49152
5519793750: global: Timer #7 stopped at tick 5519793750. Duration: 774375
5519817500: global: Timer #6 stopped at tick 5519817500. Duration: 868125
5519898750: global: Timer #0 stopped at tick 5519898750. Duration: 2336250
5519913125: global: Number of accelerators running = 3
5520040000: global: Timer #0 started at tick 5520040000
5520363750: global: Timer #1 started at tick 5520363750
5520545625: global: Timer #1 stopped at tick 5520545625. Duration: 181875
5520781875: global: Timer #6 started at tick 5520781875
5520967500: global: Timer #7 started at tick 5520967500
5521644000: system.acctest.convolution0_dma: SRC:0x0000000082148200, DST:0x0000000022030020, LEN:100
5521768000: system.acctest.convolution0_dma: Transfer completed in 0.124 us
5521835000: global: Timer #7 stopped at tick 5521835000. Duration: 867500
5521868750: global: Timer #6 stopped at tick 5521868750. Duration: 1086875
5521921000: system.acctest.elem_matrix0_dma: Transfer completed in 14.182 us
5521991875: global: Timer #0 stopped at tick 5521991875. Duration: 1951875
5522006250: global: Number of accelerators running = 3
5522135000: global: Timer #0 started at tick 5522135000
5522629375: global: Timer #6 started at tick 5522629375
5522688125: global: Timer #7 started at tick 5522688125
5523783750: global: Timer #7 stopped at tick 5523783750. Duration: 1095625
5523838750: global: Timer #6 stopped at tick 5523838750. Duration: 1209375
5523945000: global: Timer #0 stopped at tick 5523945000. Duration: 1810000
5523959375: global: Number of accelerators running = 3
5524076875: global: Timer #0 started at tick 5524076875
5524433125: global: Timer #1 started at tick 5524433125
5524616875: global: Timer #1 stopped at tick 5524616875. Duration: 183750
5524851250: global: Timer #6 started at tick 5524851250
5524928750: global: Timer #7 started at tick 5524928750
5525952500: global: Timer #7 stopped at tick 5525952500. Duration: 1023750
5526008125: global: Timer #6 stopped at tick 5526008125. Duration: 1156875
5526110000: global: Timer #0 stopped at tick 5526110000. Duration: 2033125
5526124375: global: Number of accelerators running = 3
5528302500: system.acctest.grayscale0_dma: Transfer completed in 8.648 us
5528386875: global: Timer #0 started at tick 5528386875
5528716875: global: Timer #1 started at tick 5528716875
5528890000: global: Timer #1 stopped at tick 5528890000. Duration: 173125
5529183125: global: Timer #6 started at tick 5529183125
5529223750: global: Timer #7 started at tick 5529223750
5529600000: global: Timer #7 stopped at tick 5529600000. Duration: 376250
5529648750: global: Timer #6 stopped at tick 5529648750. Duration: 465625
5529748750: global: Timer #0 stopped at tick 5529748750. Duration: 1361875
5529763125: global: Number of accelerators running = 3
********************************************************************************
system.acctest.elem_matrix0.compute
   ========= Performance Analysis =============
   Setup Time:                      7.401655seconds
   Simulation Time:                 339.812041seconds
   System Clock:                    1.000000GHz
   Transistor Latency:              1ns
   Runtime:                         10932 cycles
   Runtime:                         10.932000 us
   Stalls:                          0 cycles
   Executed Nodes:                  10931 cycles

********************************************************************************
   ========= Performance Analysis =================
   Setup Time:                      7401654513.000000ns
   Simulation Time:                 339812041307.000000ns
   System Clock:                    1.000000GHz
   Transistor Latency:              0ns
   Runtime:                         10932 cycles
   Runtime:                         0.000001 seconds
   Stalls:                          0 cycles
       Load Only:                   0 cycles
       Store Only:                  0 cycles
       Compute Only:                0 cycles
       Compute & Store:             0 cycles
       Load & Store:                0 cycles
       Load & Compute:              0 cycles
       Load & Compute & Store:      0 cycles
   Executed Nodes:                  10931 cycles
       Load Only:                   0 cycles
       Store Only:                  5 cycles
       Compute Only:                1 cycles
       Compute & Store:             21 cycles
       Load & Store:                0 cycles
       Load & Compute:              7 cycles
       Load & Compute & Store:      10897 cycles

   ========= Runtime FU's ========= (Max | Avg) ===
   Counter FU's:                      32 | 0.046838
   Integer Add/Sub FU's:               0 | 0.000000
   Integer Mul/Div FU's:               0 | 0.000000
   Integer Shifter FU's:               0 | 0.000000
   Integer Bitwise FU's:               1 | 0.000091
   Floating Point Float Add/Sub:      34 | 0.044252
   Floating Point Double Add/Sub:      0 | 0.000000
   Floating Point Float Mul/Div:       0 | 0.000000
   Floating Point Double Mul/Div:      0 | 0.000000
   0 Cycle Compare FU's:             102 | 0.046974
   GEP Instruction FU's:              96 | 0.046835
   Type Conversion FU's:               7 | 0.006782

   ========= Static FU's ==========================
   Counter FU's:                    0
   Integer Add/Sub FU's:            0
   Integer Mul/Div FU's:            0
   Integer Shifter FU's:            0
   Integer Bitwise FU's:            0
   Floating Point Float Add/Sub:    0
   Floating Point Double Add/Sub:   0
   Floating Point Float Mul/Div:    0
   Floating Point Double Mul/Div:   0
   0 Cycle Compare FU's:            0
   GEP Instruction FU's:            0
   Type Conversion FU's:            0
   Other:                           0

   ========= Pipeline Register Usage =============
   Total Number of Registers:       5641
   Max Register Usage Per Cycle:    138
   Avg Register Usage Per Cycle:    12.130992
   Avg Register Size (Bytes):       5.980606

   ========= Memory Configuration =================
   Cache Bus Ports:                 0
   Shared Cache Size:               0kB
   Local Bus Ports:                 0
   Private SPM Size:                256kB
   Private Read Ports:              0
   Private Write Ports:             0
   Private Read Bus Width:          64
   Private Write Bus Width:         64
       Memory Reads:                0
       Memory Writes:               0
   ========= Power Analysis ======================
   FU Leakage Power:                0.519269 mW 
   FU Dynamic Power:                0.154621 mW 
   FU Total Power:                  0.673890 mW 

   Registers Leakage Power:          0.005281 mW 
   Registers Dynamic Power:          0.015326 mW 
       Register Reads (Bits):        132616
       Register Writes (Bits):       133658
   Registers Total Power:            0.020607 mW

   SPM Leakage Power:               0.104100 mW
   SPM Read Dynamic Power:          3.776796 mW
   SPM Write Dynamic Power:         2.457440 mW
   SPM Total Power:                 6.338336 mW

   SPM Energy Per Read Access:      0.170493 nJ
   SPM Energy Per Write Access:     0.218190 nJ

   Cache Leakage Power:             0.000000 mW
   Cache Read Dynamic Power:        0.000000 mW
   Cache Write Dynamic Power:       0.000000 mW
   Cache Total Power:               0.000000 mW

   Accelerator Power:               0.694497 mW
   Accelerator Power (SPM):         7.032833 mW
   Accelerator Power (Cache):       0.694497 mW

   ========= Area Analysis =======================
   FU Area:                         70212.562500 um^2 (0.070213 mm^2)
   Register Area:                   429.271088 um^2 (0.000429 mm^2)
   SPM Area:                        2177.365505 um^2 (0.002177 mm^2)
   Cache Area:                      0.000000 um^2 (0.000000 mm^2)

   Accelerator Area:                70641.835938 um^2 (0.070642 mm^2)
   Accelerator Area (SPM):          72819.201442 um^2 (0.072819 mm^2)
   Accelerator Area (Cache):        70641.835938 um^2 (0.070642 mm^2)

   ========= SPM Resizing  =======================
   SPM Optimized Leakage Power:     0.004248 mW
   SPM Opt Area:                    178.524902 um^2

5536856875: global: Timer #0 started at tick 5536856875
5537102500: global: Timer #3 started at tick 5537102500
5537140000: global: Timer #4 started at tick 5537140000
5537235000: global: Timer #4 stopped at tick 5537235000. Duration: 95000
5537246250: global: Timer #5 started at tick 5537246250
5537261250: global: Timer #5 stopped at tick 5537261250. Duration: 15000
5537480625: global: Timer #3 stopped at tick 5537480625. Duration: 378125
5537535000: global: Timer #2 started at tick 5537535000
5537624375: global: Timer #2 stopped at tick 5537624375. Duration: 89375
5537851250: global: DAG ID = 2
5537863750: global: Node ID = 6
5537876875: global: Node deadline difference = -2320
5537889375: global: Predicted memory time / byte = 0.000199794 us/byte
5537901875: global: Predicted memory time = 26.1874 us
5537914375: global: Predicted memory time / byte = 0.000199794 us/byte
5537926875: global: Predicted memory time = 13.0937 us
5537939375: global: Predicted memory time / byte = 0.000247971 us/byte
5537951875: global: Predicted memory time = 16.251 us
5537964375: global: Predicted memory time / byte = 0 us/byte
5537976875: global: Predicted memory time = 0 us
5537989375: global: Predicted memory access size = 131072
5538001875: global: Predicted memory access size = 65536
5538014375: global: Predicted memory access size = 65536
5538026875: global: Predicted memory access size = 0
5538110000: global: Timer #6 started at tick 5538110000
5538224375: global: Timer #7 started at tick 5538224375
5539237500: global: Timer #7 stopped at tick 5539237500. Duration: 1013125
5539393750: global: Timer #6 stopped at tick 5539393750. Duration: 1283750
5539465625: global: Timer #0 stopped at tick 5539465625. Duration: 2608750
5539480000: global: Number of accelerators running = 3
********************************************************************************
system.acctest.grayscale0.compute
   ========= Performance Analysis =============
   Setup Time:                      0.011118seconds
   Simulation Time:                 347.207415seconds
   System Clock:                    1.000000GHz
   Transistor Latency:              1ns
   Runtime:                         10263 cycles
   Runtime:                         10.263000 us
   Stalls:                          1 cycles
   Executed Nodes:                  10261 cycles

********************************************************************************
   ========= Performance Analysis =================
   Setup Time:                      11118082.000000ns
   Simulation Time:                 347207414620.000000ns
   System Clock:                    1.000000GHz
   Transistor Latency:              0ns
   Runtime:                         10263 cycles
   Runtime:                         0.000001 seconds
   Stalls:                          1 cycles
       Load Only:                   0 cycles
       Store Only:                  1 cycles
       Compute Only:                0 cycles
       Compute & Store:             0 cycles
       Load & Store:                0 cycles
       Load & Compute:              0 cycles
       Load & Compute & Store:      0 cycles
   Executed Nodes:                  10261 cycles
       Load Only:                   0 cycles
       Store Only:                  1 cycles
       Compute Only:                88 cycles
       Compute & Store:             344 cycles
       Load & Store:                0 cycles
       Load & Compute:              1981 cycles
       Load & Compute & Store:      7847 cycles

   ========= Runtime FU's ========= (Max | Avg) ===
   Counter FU's:                      24 | 0.199556
   Integer Add/Sub FU's:               0 | 0.000000
   Integer Mul/Div FU's:               8 | 0.199552
   Integer Shifter FU's:               0 | 0.000000
   Integer Bitwise FU's:               1 | 0.000097
   Floating Point Float Add/Sub:      49 | 0.114264
   Floating Point Double Add/Sub:      0 | 0.000000
   Floating Point Float Mul/Div:      42 | 0.114129
   Floating Point Double Mul/Div:      0 | 0.000000
   0 Cycle Compare FU's:               9 | 0.066626
   GEP Instruction FU's:              36 | 0.177452
   Type Conversion FU's:              76 | 0.401969

   ========= Static FU's ==========================
   Counter FU's:                    0
   Integer Add/Sub FU's:            0
   Integer Mul/Div FU's:            0
   Integer Shifter FU's:            0
   Integer Bitwise FU's:            0
   Floating Point Float Add/Sub:    0
   Floating Point Double Add/Sub:   0
   Floating Point Float Mul/Div:    0
   Floating Point Double Mul/Div:   0
   0 Cycle Compare FU's:            0
   GEP Instruction FU's:            0
   Type Conversion FU's:            0
   Other:                           0

   ========= Pipeline Register Usage =============
   Total Number of Registers:       235
   Max Register Usage Per Cycle:    90
   Avg Register Usage Per Cycle:    33.924291
   Avg Register Size (Bytes):       5.841147

   ========= Memory Configuration =================
   Cache Bus Ports:                 0
   Shared Cache Size:               0kB
   Local Bus Ports:                 0
   Private SPM Size:                176kB
   Private Read Ports:              0
   Private Write Ports:             0
   Private Read Bus Width:          64
   Private Write Bus Width:         64
       Memory Reads:                0
       Memory Writes:               0
   ========= Power Analysis ======================
   FU Leakage Power:                1.178269 mW 
   FU Dynamic Power:                0.617392 mW 
   FU Total Power:                  1.795662 mW 

   Registers Leakage Power:          0.014185 mW 
   Registers Dynamic Power:          0.101057 mW 
       Register Reads (Bits):        348165
       Register Writes (Bits):       348168
   Registers Total Power:            0.115242 mW

   SPM Leakage Power:               0.089881 mW
   SPM Read Dynamic Power:          10.232207 mW
   SPM Write Dynamic Power:         5.980668 mW
   SPM Total Power:                 16.302756 mW

   SPM Energy Per Read Access:      0.161778 nJ
   SPM Energy Per Write Access:     0.205661 nJ

   Cache Leakage Power:             0.000000 mW
   Cache Read Dynamic Power:        0.000000 mW
   Cache Write Dynamic Power:       0.000000 mW
   Cache Total Power:               0.000000 mW

   Accelerator Power:               1.910904 mW
   Accelerator Power (SPM):         18.213660 mW
   Accelerator Power (Cache):       1.910904 mW

   ========= Area Analysis =======================
   FU Area:                         143348.187500 um^2 (0.143348 mm^2)
   Register Area:                   1152.968140 um^2 (0.001153 mm^2)
   SPM Area:                        3573.642862 um^2 (0.003574 mm^2)
   Cache Area:                      0.000000 um^2 (0.000000 mm^2)

   Accelerator Area:                144501.156250 um^2 (0.144501 mm^2)
   Accelerator Area (SPM):          148074.799112 um^2 (0.148075 mm^2)
   Accelerator Area (Cache):        144501.156250 um^2 (0.144501 mm^2)

   ========= SPM Resizing  =======================
   SPM Optimized Leakage Power:     0.003633 mW
   SPM Opt Area:                    364.024374 um^2

5539836875: global: Timer #0 started at tick 5539836875
5540196250: global: Timer #3 started at tick 5540196250
5540275000: global: Timer #4 started at tick 5540275000
5540383125: global: Timer #4 stopped at tick 5540383125. Duration: 108125
5540393750: global: Timer #5 started at tick 5540393750
5540408750: global: Timer #5 stopped at tick 5540408750. Duration: 15000
5540635625: global: Timer #3 stopped at tick 5540635625. Duration: 439375
5540705000: global: Timer #2 started at tick 5540705000
5540776875: global: Timer #2 stopped at tick 5540776875. Duration: 71875
5540796250: global: Timer #4 started at tick 5540796250
5540850625: global: Timer #4 stopped at tick 5540850625. Duration: 54375
5541122500: global: Timer #7 started at tick 5541122500
5541765875: system.acctest.grayscale0_dma: SRC:0x000000002500c020, DST:0x00000000820a3240, LEN:65536
5541901875: global: Timer #7 stopped at tick 5541901875. Duration: 779375
5542180625: global: Timer #0 stopped at tick 5542180625. Duration: 2343750
5542195000: global: Number of accelerators running = 3
********************************************************************************
system.acctest.elem_matrix0.compute
   ========= Performance Analysis =============
   Setup Time:                      8.675329seconds
   Simulation Time:                 158.725659seconds
   System Clock:                    1.000000GHz
   Transistor Latency:              1ns
   Runtime:                         8316 cycles
   Runtime:                         8.316000 us
   Stalls:                          82 cycles
   Executed Nodes:                  8233 cycles

********************************************************************************
   ========= Performance Analysis =================
   Setup Time:                      8675329311.000000ns
   Simulation Time:                 158725658650.000000ns
   System Clock:                    1.000000GHz
   Transistor Latency:              0ns
   Runtime:                         8316 cycles
   Runtime:                         0.000001 seconds
   Stalls:                          82 cycles
       Load Only:                   0 cycles
       Store Only:                  77 cycles
       Compute Only:                0 cycles
       Compute & Store:             5 cycles
       Load & Store:                0 cycles
       Load & Compute:              0 cycles
       Load & Compute & Store:      0 cycles
   Executed Nodes:                  8233 cycles
       Load Only:                   0 cycles
       Store Only:                  11 cycles
       Compute Only:                1827 cycles
       Compute & Store:             3453 cycles
       Load & Store:                0 cycles
       Load & Compute:              774 cycles
       Load & Compute & Store:      2168 cycles

   ========= Runtime FU's ========= (Max | Avg) ===
   Counter FU's:                      32 | 0.061572
   Integer Add/Sub FU's:               0 | 0.000000
   Integer Mul/Div FU's:               0 | 0.000000
   Integer Shifter FU's:               0 | 0.000000
   Integer Bitwise FU's:               1 | 0.000120
   Floating Point Float Add/Sub:      80 | 0.302014
   Floating Point Double Add/Sub:      0 | 0.000000
   Floating Point Float Mul/Div:      35 | 0.056511
   Floating Point Double Mul/Div:      0 | 0.000000
   0 Cycle Compare FU's:              15 | 0.024828
   GEP Instruction FU's:              64 | 0.061568
   Type Conversion FU's:              66 | 0.120964

   ========= Static FU's ==========================
   Counter FU's:                    0
   Integer Add/Sub FU's:            0
   Integer Mul/Div FU's:            0
   Integer Shifter FU's:            0
   Integer Bitwise FU's:            0
   Floating Point Float Add/Sub:    0
   Floating Point Double Add/Sub:   0
   Floating Point Float Mul/Div:    0
   Floating Point Double Mul/Div:   0
   0 Cycle Compare FU's:            0
   GEP Instruction FU's:            0
   Type Conversion FU's:            0
   Other:                           0

   ========= Pipeline Register Usage =============
   Total Number of Registers:       5641
   Max Register Usage Per Cycle:    126
   Avg Register Usage Per Cycle:    27.706590
   Avg Register Size (Bytes):       5.993295

   ========= Memory Configuration =================
   Cache Bus Ports:                 0
   Shared Cache Size:               0kB
   Local Bus Ports:                 0
   Private SPM Size:                256kB
   Private Read Ports:              0
   Private Write Ports:             0
   Private Read Bus Width:          64
   Private Write Bus Width:         64
       Memory Reads:                0
       Memory Writes:               0
   ========= Power Analysis ======================
   FU Leakage Power:                1.265749 mW 
   FU Dynamic Power:                1.166708 mW 
   FU Total Power:                  2.432457 mW 

   Registers Leakage Power:          0.011908 mW 
   Registers Dynamic Power:          0.045645 mW 
       Register Reads (Bits):        230408
       Register Writes (Bits):       231961
   Registers Total Power:            0.057553 mW

   SPM Leakage Power:               0.104100 mW
   SPM Read Dynamic Power:          4.599549 mW
   SPM Write Dynamic Power:         2.880682 mW
   SPM Total Power:                 7.584331 mW

   SPM Energy Per Read Access:      0.170493 nJ
   SPM Energy Per Write Access:     0.218190 nJ

   Cache Leakage Power:             0.000000 mW
   Cache Read Dynamic Power:        0.000000 mW
   Cache Write Dynamic Power:       0.000000 mW
   Cache Total Power:               0.000000 mW

   Accelerator Power:               2.490010 mW
   Accelerator Power (SPM):         10.074342 mW
   Accelerator Power (Cache):       2.490010 mW

   ========= Area Analysis =======================
   FU Area:                         170559.593750 um^2 (0.170560 mm^2)
   Register Area:                   967.909180 um^2 (0.000968 mm^2)
   SPM Area:                        2177.365505 um^2 (0.002177 mm^2)
   Cache Area:                      0.000000 um^2 (0.000000 mm^2)

   Accelerator Area:                171527.500000 um^2 (0.171527 mm^2)
   Accelerator Area (SPM):          173704.865505 um^2 (0.173705 mm^2)
   Accelerator Area (Cache):        171527.500000 um^2 (0.171527 mm^2)

   ========= SPM Resizing  =======================
   SPM Optimized Leakage Power:     0.003887 mW
   SPM Opt Area:                    172.850411 um^2

5547533125: global: Timer #0 started at tick 5547533125
5547841875: global: Timer #3 started at tick 5547841875
5547879375: global: Timer #4 started at tick 5547879375
5548040000: global: Timer #4 stopped at tick 5548040000. Duration: 160625
5548048125: global: Timer #5 started at tick 5548048125
5548063125: global: Timer #5 stopped at tick 5548063125. Duration: 15000
5548116875: system.acctest.grayscale0_dma: Transfer completed in 6.351 us
5548273750: global: Timer #3 stopped at tick 5548273750. Duration: 431875
5548323125: global: Timer #2 started at tick 5548323125
5548406875: global: Timer #2 stopped at tick 5548406875. Duration: 83750
5548641250: global: DAG ID = 2
5548653750: global: Node ID = 7
5548666875: global: Node deadline difference = -2348
5548679375: global: Predicted memory time / byte = 0.00020835 us/byte
5548691875: global: Predicted memory time = 13.6544 us
5548704375: global: Predicted memory time / byte = 0.00020835 us/byte
5548716875: global: Predicted memory time = 13.6544 us
5548729375: global: Predicted memory time / byte = 0 us/byte
5548741875: global: Predicted memory time = 0 us
5548754375: global: Predicted memory time / byte = 0 us/byte
5548766875: global: Predicted memory time = 0 us
5548779375: global: Predicted memory access size = 65536
5548791875: global: Predicted memory access size = 0
5548804375: global: Predicted memory access size = 65536
5548816875: global: Predicted memory access size = 0
5548930000: global: Timer #6 started at tick 5548930000
5549040000: global: Timer #7 started at tick 5549040000
5549675875: system.acctest.elem_matrix0_dma: SRC:0x000000008230ad00, DST:0x0000000024010020, LEN:65536
5549807500: global: Timer #7 stopped at tick 5549807500. Duration: 767500
5549830000: global: Timer #6 stopped at tick 5549830000. Duration: 900000
5549913125: global: Timer #0 stopped at tick 5549913125. Duration: 2380000
5549927500: global: Number of accelerators running = 3
5550045000: global: Timer #0 started at tick 5550045000
5550390000: global: Timer #1 started at tick 5550390000
5550571875: global: Timer #1 stopped at tick 5550571875. Duration: 181875
5550773750: global: DAG ID = 0
5550786250: global: Node ID = 1
5550820625: global: Node deadline difference = -13473
5550833125: global: Predicted memory time / byte = 0.000194819 us/byte
5550845625: global: Predicted memory time = 9.57575 us
5550858125: global: Predicted memory time / byte = 0.000194819 us/byte
5550870625: global: Predicted memory time = 12.7677 us
5550883125: global: Predicted memory time / byte = 0.000175822 us/byte
5550895625: global: Predicted memory time = 8.642 us
5550908125: global: Predicted memory time / byte = 0.000125092 us/byte
5550920625: global: Predicted memory time = 8.198 us
5550933125: global: Predicted memory access size = 49152
5550945625: global: Predicted memory access size = 49152
5550958125: global: Predicted memory access size = 65536
5550970625: global: Predicted memory access size = 65536
5551113125: global: Timer #0 stopped at tick 5551113125. Duration: 1068125
5551127500: global: Number of accelerators running = 2
5561678875: system.acctest.elem_matrix0_dma: Transfer completed in 12.003 us
5561763750: global: Timer #0 started at tick 5561763750
5562100000: global: Timer #1 started at tick 5562100000
5562273125: global: Timer #1 stopped at tick 5562273125. Duration: 173125
5562507500: global: Timer #6 started at tick 5562507500
5562579375: global: Timer #7 started at tick 5562579375
5563582500: global: Timer #7 stopped at tick 5563582500. Duration: 1003125
5563617500: global: Timer #6 stopped at tick 5563617500. Duration: 1110000
5563718750: global: Timer #0 stopped at tick 5563718750. Duration: 1955000
5563733125: global: Number of accelerators running = 2
********************************************************************************
system.acctest.elem_matrix0.compute
   ========= Performance Analysis =============
   Setup Time:                      8.848298seconds
   Simulation Time:                 173.480801seconds
   System Clock:                    1.000000GHz
   Transistor Latency:              1ns
   Runtime:                         10932 cycles
   Runtime:                         10.932000 us
   Stalls:                          1 cycles
   Executed Nodes:                  10930 cycles

********************************************************************************
   ========= Performance Analysis =================
   Setup Time:                      8848297944.000000ns
   Simulation Time:                 173480800709.000000ns
   System Clock:                    1.000000GHz
   Transistor Latency:              0ns
   Runtime:                         10932 cycles
   Runtime:                         0.000001 seconds
   Stalls:                          1 cycles
       Load Only:                   0 cycles
       Store Only:                  1 cycles
       Compute Only:                0 cycles
       Compute & Store:             0 cycles
       Load & Store:                0 cycles
       Load & Compute:              0 cycles
       Load & Compute & Store:      0 cycles
   Executed Nodes:                  10930 cycles
       Load Only:                   0 cycles
       Store Only:                  4 cycles
       Compute Only:                1 cycles
       Compute & Store:             21 cycles
       Load & Store:                0 cycles
       Load & Compute:              6 cycles
       Load & Compute & Store:      10898 cycles

   ========= Runtime FU's ========= (Max | Avg) ===
   Counter FU's:                      32 | 0.046838
   Integer Add/Sub FU's:               0 | 0.000000
   Integer Mul/Div FU's:               0 | 0.000000
   Integer Shifter FU's:               0 | 0.000000
   Integer Bitwise FU's:               1 | 0.000091
   Floating Point Float Add/Sub:       0 | 0.000000
   Floating Point Double Add/Sub:      0 | 0.000000
   Floating Point Float Mul/Div:      34 | 0.044252
   Floating Point Double Mul/Div:      0 | 0.000000
   0 Cycle Compare FU's:             102 | 0.046945
   GEP Instruction FU's:              96 | 0.046835
   Type Conversion FU's:               7 | 0.006782

   ========= Static FU's ==========================
   Counter FU's:                    0
   Integer Add/Sub FU's:            0
   Integer Mul/Div FU's:            0
   Integer Shifter FU's:            0
   Integer Bitwise FU's:            0
   Floating Point Float Add/Sub:    0
   Floating Point Double Add/Sub:   0
   Floating Point Float Mul/Div:    0
   Floating Point Double Mul/Div:   0
   0 Cycle Compare FU's:            0
   GEP Instruction FU's:            0
   Type Conversion FU's:            0
   Other:                           0

   ========= Pipeline Register Usage =============
   Total Number of Registers:       5641
   Max Register Usage Per Cycle:    137
   Avg Register Usage Per Cycle:    12.130992
   Avg Register Size (Bytes):       5.980606

   ========= Memory Configuration =================
   Cache Bus Ports:                 0
   Shared Cache Size:               0kB
   Local Bus Ports:                 0
   Private SPM Size:                256kB
   Private Read Ports:              0
   Private Write Ports:             0
   Private Read Bus Width:          64
   Private Write Bus Width:         64
       Memory Reads:                0
       Memory Writes:               0
   ========= Power Analysis ======================
[...]
   Cache Area:                      0.000000 um^2 (0.000000 mm^2)

   Accelerator Area:                479.641052 um^2 (0.000480 mm^2)
   Accelerator Area (SPM):          2657.006557 um^2 (0.002657 mm^2)
   Accelerator Area (Cache):        479.641052 um^2 (0.000480 mm^2)

   ========= SPM Resizing  =======================
   SPM Optimized Leakage Power:     0.004248 mW
   SPM Opt Area:                    178.524902 um^2

22754996250: global: Timer #0 started at tick 22754996250
22755228125: global: Timer #3 started at tick 22755228125
22755247500: global: Timer #4 started at tick 22755247500
22755338750: global: Timer #4 stopped at tick 22755338750. Duration: 91250
22755346875: global: Timer #5 started at tick 22755346875
22755361875: global: Timer #5 stopped at tick 22755361875. Duration: 15000
22755581875: global: Timer #3 stopped at tick 22755581875. Duration: 353750
22755631250: global: Timer #2 started at tick 22755631250
22755689375: global: Timer #2 stopped at tick 22755689375. Duration: 58125
22755921250: global: DAG ID = 1
22755933750: global: Node ID = 19
22755946875: global: Node deadline difference = 2300
22755959375: global: Predicted memory time / byte = 0.000174955 us/byte
22755971875: global: Predicted memory time = 22.9317 us
22755984375: global: Predicted memory time / byte = 0.000174955 us/byte
22755996875: global: Predicted memory time = 11.4659 us
22756009375: global: Predicted memory time / byte = 0.000156357 us/byte
22756021875: global: Predicted memory time = 20.494 us
22756034375: global: Predicted memory time / byte = 0 us/byte
22756046875: global: Predicted memory time = 0 us
22756059375: global: Predicted memory access size = 131072
22756071875: global: Predicted memory access size = 131072
22756084375: global: Predicted memory access size = 65536
22756096875: global: Predicted memory access size = 0
22756162500: global: Timer #6 started at tick 22756162500
22756239375: global: Timer #7 started at tick 22756239375
22756867375: system.acctest.convolution0_dma: SRC:0x0000000024020020, DST:0x0000000022000020, LEN:65536
22756996875: global: Timer #7 stopped at tick 22756996875. Duration: 757500
22757011875: global: Timer #6 stopped at tick 22757011875. Duration: 849375
22757110625: global: Timer #0 stopped at tick 22757110625. Duration: 2114375
22757125000: global: Number of accelerators running = 1
22767128375: system.acctest.convolution0_dma: Transfer completed in 10.261 us
22767213750: global: Timer #0 started at tick 22767213750
22767537500: global: Timer #1 started at tick 22767537500
22767781875: global: Timer #1 stopped at tick 22767781875. Duration: 244375
22768005000: global: Timer #6 started at tick 22768005000
22768055625: global: Timer #7 started at tick 22768055625
22768690875: system.acctest.convolution0_dma: SRC:0x0000000082148280, DST:0x0000000022030020, LEN:100
22768787875: system.acctest.convolution0_dma: Transfer completed in 0.097 us
22768815000: global: Timer #7 stopped at tick 22768815000. Duration: 759375
22768835000: global: Timer #6 stopped at tick 22768835000. Duration: 830000
22768931250: global: Timer #0 stopped at tick 22768931250. Duration: 1717500
22768945625: global: Number of accelerators running = 1
22769055000: global: Timer #0 started at tick 22769055000
22769491250: global: Timer #6 started at tick 22769491250
22769533125: global: Timer #7 started at tick 22769533125
22770537500: global: Timer #7 stopped at tick 22770537500. Duration: 1004375
22770573750: global: Timer #6 stopped at tick 22770573750. Duration: 1082500
22770663125: global: Timer #0 stopped at tick 22770663125. Duration: 1608125
22770677500: global: Number of accelerators running = 1
********************************************************************************
system.acctest.convolution0.compute
   ========= Performance Analysis =============
   Setup Time:                      0.633004seconds
   Simulation Time:                 273.920802seconds
   System Clock:                    1.000000GHz
   Transistor Latency:              1ns
   Runtime:                         1545605 cycles
   Runtime:                         1545.605000 us
   Stalls:                          0 cycles
   Executed Nodes:                  1545604 cycles

********************************************************************************
   ========= Performance Analysis =================
   Setup Time:                      633004195.000000ns
   Simulation Time:                 273920802408.999969ns
   System Clock:                    1.000000GHz
   Transistor Latency:              0ns
   Runtime:                         1545605 cycles
   Runtime:                         0.000155 seconds
   Stalls:                          0 cycles
       Load Only:                   0 cycles
       Store Only:                  0 cycles
       Compute Only:                0 cycles
       Compute & Store:             0 cycles
       Load & Store:                0 cycles
       Load & Compute:              0 cycles
       Load & Compute & Store:      0 cycles
   Executed Nodes:                  1545604 cycles
       Load Only:                   0 cycles
       Store Only:                  0 cycles
       Compute Only:                1127274 cycles
       Compute & Store:             16374 cycles
       Load & Store:                0 cycles
       Load & Compute:              401946 cycles
       Load & Compute & Store:      10 cycles

   ========= Runtime FU's ========= (Max | Avg) ===
   Counter FU's:                       3 | 0.112298
   Integer Add/Sub FU's:               4 | 0.211564
   Integer Mul/Div FU's:               1 | 0.052505
   Integer Shifter FU's:              10 | 0.005268
   Integer Bitwise FU's:               2 | 0.184266
   Floating Point Float Add/Sub:       5 | 0.207991
   Floating Point Double Add/Sub:      0 | 0.000000
   Floating Point Float Mul/Div:       2 | 0.130117
   Floating Point Double Mul/Div:      0 | 0.000000
   0 Cycle Compare FU's:              40 | 0.145956
   GEP Instruction FU's:               4 | 0.132683
   Type Conversion FU's:               7 | 0.186618

   ========= Static FU's ==========================
   Counter FU's:                    0
   Integer Add/Sub FU's:            0
   Integer Mul/Div FU's:            0
   Integer Shifter FU's:            0
   Integer Bitwise FU's:            0
   Floating Point Float Add/Sub:    0
   Floating Point Double Add/Sub:   0
   Floating Point Float Mul/Div:    0
   Floating Point Double Mul/Div:   0
   0 Cycle Compare FU's:            0
   GEP Instruction FU's:            0
   Type Conversion FU's:            0
   Other:                           0

   ========= Pipeline Register Usage =============
   Total Number of Registers:       1702
   Max Register Usage Per Cycle:    20
   Avg Register Usage Per Cycle:    6.348199
   Avg Register Size (Bytes):       5.569148

   ========= Memory Configuration =================
   Cache Bus Ports:                 0
   Shared Cache Size:               0kB
   Local Bus Ports:                 0
   Private SPM Size:                192kB
   Private Read Ports:              0
   Private Write Ports:             0
   Private Read Bus Width:          64
   Private Write Bus Width:         64
       Memory Reads:                0
       Memory Writes:               0
   ========= Power Analysis ======================
   FU Leakage Power:                0.196912 mW 
   FU Dynamic Power:                2743.028564 mW 
   FU Total Power:                  2743.225586 mW 

   Registers Leakage Power:          0.002459 mW 
   Registers Dynamic Power:          75.251152 mW 
       Register Reads (Bits):        9811808
       Register Writes (Bits):       10049727
   Registers Total Power:            75.253609 mW

   SPM Leakage Power:               0.078311 mW
   SPM Read Dynamic Power:          37.099763 mW
   SPM Write Dynamic Power:         5.754209 mW
   SPM Total Power:                 42.932282 mW

   SPM Energy Per Read Access:      0.130935 nJ
   SPM Energy Per Write Access:     0.166637 nJ

   Cache Leakage Power:             0.000000 mW
   Cache Read Dynamic Power:        0.000000 mW
   Cache Write Dynamic Power:       0.000000 mW
   Cache Total Power:               0.000000 mW

   Accelerator Power:               2818.479248 mW
   Accelerator Power (SPM):         2861.411530 mW
   Accelerator Power (Cache):       2818.479248 mW

   ========= Area Analysis =======================
   FU Area:                         22931.867188 um^2 (0.022932 mm^2)
   Register Area:                   199.868912 um^2 (0.000200 mm^2)
   SPM Area:                        1748.188735 um^2 (0.001748 mm^2)
   Cache Area:                      0.000000 um^2 (0.000000 mm^2)

   Accelerator Area:                23131.736328 um^2 (0.023132 mm^2)
   Accelerator Area (SPM):          24879.925063 um^2 (0.024880 mm^2)
   Accelerator Area (Cache):        23131.736328 um^2 (0.023132 mm^2)

   ========= SPM Resizing  =======================
   SPM Optimized Leakage Power:     0.002053 mW
   SPM Opt Area:                    145.024971 um^2

24316107500: global: Timer #0 started at tick 24316107500
24316338750: global: Timer #3 started at tick 24316338750
24316364375: global: Timer #4 started at tick 24316364375
24316401250: global: Timer #4 stopped at tick 24316401250. Duration: 36875
24316412500: global: Timer #5 started at tick 24316412500
24316427500: global: Timer #5 stopped at tick 24316427500. Duration: 15000
24316634375: global: Timer #3 stopped at tick 24316634375. Duration: 295625
24316683750: global: Timer #2 started at tick 24316683750
24316741875: global: Timer #2 stopped at tick 24316741875. Duration: 58125
24316969375: global: DAG ID = 1
24316981875: global: Node ID = 20
24316995000: global: Node deadline difference = 2284
24317007500: global: Predicted memory time / byte = 0.000171303 us/byte
24317020000: global: Predicted memory time = 11.2437 us
24317032500: global: Predicted memory time / byte = 0.000171303 us/byte
24317045000: global: Predicted memory time = 11.2265 us
24317057500: global: Predicted memory time / byte = 0.000156418 us/byte
24317070000: global: Predicted memory time = 10.251 us
24317082500: global: Predicted memory time / byte = 0 us/byte
24317095000: global: Predicted memory time = 0 us
24317107500: global: Predicted memory access size = 65636
24317120000: global: Predicted memory access size = 65536
24317132500: global: Predicted memory access size = 65536
24317145000: global: Predicted memory access size = 0
24317227500: global: Timer #6 started at tick 24317227500
24317396250: global: Timer #7 started at tick 24317396250
24318024500: system.acctest.elem_matrix0_dma: SRC:0x0000000082178740, DST:0x0000000024000020, LEN:65536
24318147500: global: Timer #7 stopped at tick 24318147500. Duration: 751250
24318162500: global: Timer #6 stopped at tick 24318162500. Duration: 935000
24318238750: global: Timer #0 stopped at tick 24318238750. Duration: 2131250
24318253125: global: Number of accelerators running = 1
24329919500: system.acctest.elem_matrix0_dma: Transfer completed in 11.895 us
24330005000: global: Timer #0 started at tick 24330005000
24330320000: global: Timer #1 started at tick 24330320000
24330564375: global: Timer #1 stopped at tick 24330564375. Duration: 244375
24330788125: global: Timer #6 started at tick 24330788125
24330875625: global: Timer #7 started at tick 24330875625
24331507375: system.acctest.elem_matrix0_dma: SRC:0x0000000022020020, DST:0x0000000024010020, LEN:65536
24331636875: global: Timer #7 stopped at tick 24331636875. Duration: 761250
24331654375: global: Timer #6 stopped at tick 24331654375. Duration: 866250
24331750625: global: Timer #0 stopped at tick 24331750625. Duration: 1745625
24331765000: global: Number of accelerators running = 1
24341768375: system.acctest.elem_matrix0_dma: Transfer completed in 10.261 us
24341845000: global: Timer #0 started at tick 24341845000
24342141250: global: Timer #1 started at tick 24342141250
24342383125: global: Timer #1 stopped at tick 24342383125. Duration: 241875
24342656875: global: Timer #6 started at tick 24342656875
24342714375: global: Timer #7 started at tick 24342714375
24343710000: global: Timer #7 stopped at tick 24343710000. Duration: 995625
24343753125: global: Timer #6 stopped at tick 24343753125. Duration: 1096250
24343842500: global: Timer #0 stopped at tick 24343842500. Duration: 1997500
24343856875: global: Number of accelerators running = 1
********************************************************************************
system.acctest.elem_matrix0.compute
   ========= Performance Analysis =============
   Setup Time:                      4.620147seconds
   Simulation Time:                 134.523915seconds
   System Clock:                    1.000000GHz
   Transistor Latency:              1ns
   Runtime:                         10932 cycles
   Runtime:                         10.932000 us
   Stalls:                          1 cycles
   Executed Nodes:                  10930 cycles

********************************************************************************
   ========= Performance Analysis =================
   Setup Time:                      4620146690.000000ns
   Simulation Time:                 134523915270.000000ns
   System Clock:                    1.000000GHz
   Transistor Latency:              0ns
   Runtime:                         10932 cycles
   Runtime:                         0.000001 seconds
   Stalls:                          1 cycles
       Load Only:                   0 cycles
       Store Only:                  1 cycles
       Compute Only:                0 cycles
       Compute & Store:             0 cycles
       Load & Store:                0 cycles
       Load & Compute:              0 cycles
       Load & Compute & Store:      0 cycles
   Executed Nodes:                  10930 cycles
       Load Only:                   0 cycles
       Store Only:                  4 cycles
       Compute Only:                1 cycles
       Compute & Store:             21 cycles
       Load & Store:                0 cycles
       Load & Compute:              6 cycles
       Load & Compute & Store:      10898 cycles

   ========= Runtime FU's ========= (Max | Avg) ===
   Counter FU's:                      32 | 0.046838
   Integer Add/Sub FU's:               0 | 0.000000
   Integer Mul/Div FU's:               0 | 0.000000
   Integer Shifter FU's:               0 | 0.000000
   Integer Bitwise FU's:               1 | 0.000091
   Floating Point Float Add/Sub:       0 | 0.000000
   Floating Point Double Add/Sub:      0 | 0.000000
   Floating Point Float Mul/Div:      34 | 0.044252
   Floating Point Double Mul/Div:      0 | 0.000000
   0 Cycle Compare FU's:             102 | 0.046945
   GEP Instruction FU's:              96 | 0.046835
   Type Conversion FU's:               7 | 0.006782

   ========= Static FU's ==========================
   Counter FU's:                    0
   Integer Add/Sub FU's:            0
   Integer Mul/Div FU's:            0
   Integer Shifter FU's:            0
   Integer Bitwise FU's:            0
   Floating Point Float Add/Sub:    0
   Floating Point Double Add/Sub:   0
   Floating Point Float Mul/Div:    0
   Floating Point Double Mul/Div:   0
   0 Cycle Compare FU's:            0
   GEP Instruction FU's:            0
   Type Conversion FU's:            0
   Other:                           0

   ========= Pipeline Register Usage =============
   Total Number of Registers:       5641
   Max Register Usage Per Cycle:    137
   Avg Register Usage Per Cycle:    12.130992
   Avg Register Size (Bytes):       5.980606

   ========= Memory Configuration =================
   Cache Bus Ports:                 0
   Shared Cache Size:               0kB
   Local Bus Ports:                 0
   Private SPM Size:                256kB
   Private Read Ports:              0
   Private Write Ports:             0
   Private Read Bus Width:          64
   Private Write Bus Width:         64
       Memory Reads:                0
       Memory Writes:               0
   ========= Power Analysis ======================
   FU Leakage Power:                0.045377 mW 
   FU Dynamic Power:                0.142576 mW 
   FU Total Power:                  0.187953 mW 

   Registers Leakage Power:          0.005281 mW 
   Registers Dynamic Power:          0.015326 mW 
       Register Reads (Bits):        132616
       Register Writes (Bits):       133658
   Registers Total Power:            0.020607 mW

   SPM Leakage Power:               0.104100 mW
   SPM Read Dynamic Power:          24.075045 mW
   SPM Write Dynamic Power:         19.658302 mW
   SPM Total Power:                 43.837447 mW

   SPM Energy Per Read Access:      0.170493 nJ
   SPM Energy Per Write Access:     0.218190 nJ

   Cache Leakage Power:             0.000000 mW
   Cache Read Dynamic Power:        0.000000 mW
   Cache Write Dynamic Power:       0.000000 mW
   Cache Total Power:               0.000000 mW

   Accelerator Power:               0.208559 mW
   Accelerator Power (SPM):         44.046006 mW
   Accelerator Power (Cache):       0.208559 mW

   ========= Area Analysis =======================
   FU Area:                         5472.068359 um^2 (0.005472 mm^2)
   Register Area:                   429.271088 um^2 (0.000429 mm^2)
   SPM Area:                        2177.365505 um^2 (0.002177 mm^2)
   Cache Area:                      0.000000 um^2 (0.000000 mm^2)

   Accelerator Area:                5901.339355 um^2 (0.005901 mm^2)
   Accelerator Area (SPM):          8078.704860 um^2 (0.008079 mm^2)
   Accelerator Area (Cache):        5901.339355 um^2 (0.005901 mm^2)

   ========= SPM Resizing  =======================
   SPM Optimized Leakage Power:     0.004248 mW
   SPM Opt Area:                    178.524902 um^2

24354607500: global: Timer #0 started at tick 24354607500
24354808125: global: Timer #7 started at tick 24354808125
24355463750: system.acctest.elem_matrix0_dma: SRC:0x0000000024030020, DST:0x0000000082178740, LEN:65536
24355600000: global: Timer #7 stopped at tick 24355600000. Duration: 791875
24355833750: global: Timer #0 stopped at tick 24355833750. Duration: 1226250
24355848125: global: Number of accelerators running = 1
24361824750: system.acctest.elem_matrix0_dma: Transfer completed in 6.361 us
24361916250: global: Timer #0 started at tick 24361916250
24362253125: global: Timer #1 started at tick 24362253125
24362496875: global: Timer #1 stopped at tick 24362496875. Duration: 243750
24362696875: global: DAG ID = 1
24362709375: global: Node ID = 21
24362733125: global: DAG execution time = 18940
24362746250: global: DAG deadline difference = 2273
24362763125: global: Node deadline difference = 2273
24362775625: global: Predicted memory time / byte = 0.000171305 us/byte
24362788125: global: Predicted memory time = 22.4533 us
24362800625: global: Predicted memory time / byte = 0.000171305 us/byte
24362813125: global: Predicted memory time = 11.2267 us
24362825625: global: Predicted memory time / byte = 0.000168915 us/byte
24362838125: global: Predicted memory time = 22.14 us
24362850625: global: Predicted memory time / byte = 9.73511e-05 us/byte
24362863125: global: Predicted memory time = 6.38 us
24362875625: global: Predicted memory access size = 131072
24362888125: global: Predicted memory access size = 131072
24362900625: global: Predicted memory access size = 65536
24362913125: global: Predicted memory access size = 65536
24363020000: global: Timer #0 stopped at tick 24363020000. Duration: 1103750
24363034375: global: Number of accelerators running = 0
24363114375: global: Number of forwards = 138
24363259375: global: Number of colocations = 105
24363278125: global: Number of DAG deadlines met = 2
24363296875: global: Number of node deadlines met = 136
24363330625: global: Total predicted compute time = 20394 us
Exiting @ tick 24363475000 because m5_exit instruction encountered
