
---------- Begin Simulation Statistics ----------
final_tick                                37099023125                       # Number of ticks from beginning of simulation (restored from checkpoints and never reset)
host_inst_rate                                    283                       # Simulator instruction rate (inst/s)
host_mem_usage                               16546944                       # Number of bytes of host memory used
host_op_rate                                      290                       # Simulator op (including micro ops) rate (op/s)
host_seconds                                105514.04                       # Real time elapsed on the host
host_tick_rate                                 221681                       # Simulator tick rate (ticks/s)
sim_freq                                 1000000000000                       # Frequency of simulated ticks
sim_insts                                    29890433                       # Number of instructions simulated
sim_ops                                      30629617                       # Number of ops (including micro ops) simulated
sim_seconds                                  0.023391                       # Number of seconds simulated
sim_ticks                                 23390508750                       # Number of ticks simulated
system.acctest.coherency_bus.snoop_filter.hit_multi_requests            0                       # Number of requests hitting in the snoop filter with multiple (>1) holders of the requested data.
system.acctest.coherency_bus.snoop_filter.hit_multi_snoops            0                       # Number of snoops hitting in the snoop filter with multiple (>1) holders of the requested data.
system.acctest.coherency_bus.snoop_filter.hit_single_requests            0                       # Number of requests hitting in the snoop filter with a single holder of the requested data.
system.acctest.coherency_bus.snoop_filter.hit_single_snoops            0                       # Number of snoops hitting in the snoop filter with a single holder of the requested data.
system.acctest.coherency_bus.snoop_filter.tot_requests            0                       # Total number of requests made to the snoop filter.
system.acctest.coherency_bus.snoop_filter.tot_snoops            0                       # Total number of snoops made to the snoop filter.
system.cf0.dma_read_bytes                           0                       # Number of bytes transfered via DMA reads (not PRD).
system.cf0.dma_read_full_pages                      0                       # Number of full page size DMA reads (not PRD).
system.cf0.dma_read_txs                             0                       # Number of DMA read transactions (not PRD).
system.cf0.dma_write_bytes                          0                       # Number of bytes transfered via DMA writes.
system.cf0.dma_write_full_pages                     0                       # Number of full page size DMA writes.
system.cf0.dma_write_txs                            0                       # Number of DMA write transactions.
system.cpu.branchPred.BTBCorrect                    0                       # Number of correct BTB predictions (this stat may not work properly.
system.cpu.branchPred.BTBHitPct             96.989563                       # BTB Hit Percentage
system.cpu.branchPred.BTBHits                 1077169                       # Number of BTB hits
system.cpu.branchPred.BTBLookups              1110603                       # Number of BTB lookups
system.cpu.branchPred.RASInCorrect                331                       # Number of incorrect RAS predictions.
system.cpu.branchPred.condIncorrect             21675                       # Number of conditional branches incorrect
system.cpu.branchPred.condPredicted           1138462                       # Number of conditional branches predicted
system.cpu.branchPred.indirectHits              15220                       # Number of indirect target hits.
system.cpu.branchPred.indirectLookups           18794                       # Number of indirect predictor lookups.
system.cpu.branchPred.indirectMisses             3574                       # Number of indirect misses.
system.cpu.branchPred.lookups                 1289897                       # Number of BP lookups
system.cpu.branchPred.usedRAS                   53324                       # Number of times the RAS was used to get a target.
system.cpu.branchPredindirectMispredicted         4233                       # Number of mispredicted indirect branches.
system.cpu.committedInsts                     7594626                       # Number of instructions committed
system.cpu.committedOps                       7736374                       # Number of ops (including micro ops) committed
system.cpu.cpi                               3.140152                       # CPI: cycles per instruction
system.cpu.discardedOps                         57117                       # Number of ops (including micro ops) which were discarded before commit
system.cpu.dtb.accesses                             0                       # DTB accesses
system.cpu.dtb.align_faults                         1                       # Number of TLB faults due to alignment restrictions
system.cpu.dtb.domain_faults                        0                       # Number of TLB faults due to domain restrictions
system.cpu.dtb.flush_entries                        0                       # Number of entries that have been flushed from TLB
system.cpu.dtb.flush_tlb                            0                       # Number of times complete TLB was flushed
system.cpu.dtb.flush_tlb_asid                       0                       # Number of times TLB was flushed by ASID
system.cpu.dtb.flush_tlb_mva                        0                       # Number of times TLB was flushed by MVA
system.cpu.dtb.flush_tlb_mva_asid                   0                       # Number of times TLB was flushed by MVA & ASID
system.cpu.dtb.hits                                 0                       # DTB hits
system.cpu.dtb.inst_accesses                        0                       # ITB inst accesses
system.cpu.dtb.inst_hits                            0                       # ITB inst hits
system.cpu.dtb.inst_misses                          0                       # ITB inst misses
system.cpu.dtb.misses                               0                       # DTB misses
system.cpu.dtb.perms_faults                         0                       # Number of TLB faults due to permissions restrictions
system.cpu.dtb.prefetch_faults                      0                       # Number of TLB faults due to prefetch
system.cpu.dtb.read_accesses                        0                       # DTB read accesses
system.cpu.dtb.read_hits                            0                       # DTB read hits
system.cpu.dtb.read_misses                          0                       # DTB read misses
system.cpu.dtb.stage2_mmu.stage2_tlb.accesses            0                       # DTB accesses
system.cpu.dtb.stage2_mmu.stage2_tlb.align_faults            0                       # Number of TLB faults due to alignment restrictions
system.cpu.dtb.stage2_mmu.stage2_tlb.domain_faults            0                       # Number of TLB faults due to domain restrictions
system.cpu.dtb.stage2_mmu.stage2_tlb.flush_entries            0                       # Number of entries that have been flushed from TLB
system.cpu.dtb.stage2_mmu.stage2_tlb.flush_tlb            0                       # Number of times complete TLB was flushed
system.cpu.dtb.stage2_mmu.stage2_tlb.flush_tlb_asid            0                       # Number of times TLB was flushed by ASID
system.cpu.dtb.stage2_mmu.stage2_tlb.flush_tlb_mva            0                       # Number of times TLB was flushed by MVA
system.cpu.dtb.stage2_mmu.stage2_tlb.flush_tlb_mva_asid            0                       # Number of times TLB was flushed by MVA & ASID
system.cpu.dtb.stage2_mmu.stage2_tlb.hits            0                       # DTB hits
system.cpu.dtb.stage2_mmu.stage2_tlb.inst_accesses            0                       # ITB inst accesses
system.cpu.dtb.stage2_mmu.stage2_tlb.inst_hits            0                       # ITB inst hits
system.cpu.dtb.stage2_mmu.stage2_tlb.inst_misses            0                       # ITB inst misses
system.cpu.dtb.stage2_mmu.stage2_tlb.misses            0                       # DTB misses
system.cpu.dtb.stage2_mmu.stage2_tlb.perms_faults            0                       # Number of TLB faults due to permissions restrictions
system.cpu.dtb.stage2_mmu.stage2_tlb.prefetch_faults            0                       # Number of TLB faults due to prefetch
system.cpu.dtb.stage2_mmu.stage2_tlb.read_accesses            0                       # DTB read accesses
system.cpu.dtb.stage2_mmu.stage2_tlb.read_hits            0                       # DTB read hits
system.cpu.dtb.stage2_mmu.stage2_tlb.read_misses            0                       # DTB read misses
system.cpu.dtb.stage2_mmu.stage2_tlb.walker.walkRequestOrigin_Requested::Data            0                       # Table walker requests started/completed, data/inst
system.cpu.dtb.stage2_mmu.stage2_tlb.walker.walkRequestOrigin_Requested::Inst            0                       # Table walker requests started/completed, data/inst
system.cpu.dtb.stage2_mmu.stage2_tlb.walker.walkRequestOrigin_Requested::total            0                       # Table walker requests started/completed, data/inst
system.cpu.dtb.stage2_mmu.stage2_tlb.walker.walkRequestOrigin_Completed::Data            0                       # Table walker requests started/completed, data/inst
system.cpu.dtb.stage2_mmu.stage2_tlb.walker.walkRequestOrigin_Completed::Inst            0                       # Table walker requests started/completed, data/inst
system.cpu.dtb.stage2_mmu.stage2_tlb.walker.walkRequestOrigin_Completed::total            0                       # Table walker requests started/completed, data/inst
system.cpu.dtb.stage2_mmu.stage2_tlb.walker.walkRequestOrigin::total            0                       # Table walker requests started/completed, data/inst
system.cpu.dtb.stage2_mmu.stage2_tlb.walker.walks            0                       # Table walker walks requested
system.cpu.dtb.stage2_mmu.stage2_tlb.write_accesses            0                       # DTB write accesses
system.cpu.dtb.stage2_mmu.stage2_tlb.write_hits            0                       # DTB write hits
system.cpu.dtb.stage2_mmu.stage2_tlb.write_misses            0                       # DTB write misses
system.cpu.dtb.walker.walkRequestOrigin_Requested::Data            0                       # Table walker requests started/completed, data/inst
system.cpu.dtb.walker.walkRequestOrigin_Requested::Inst            0                       # Table walker requests started/completed, data/inst
system.cpu.dtb.walker.walkRequestOrigin_Requested::total            0                       # Table walker requests started/completed, data/inst
system.cpu.dtb.walker.walkRequestOrigin_Completed::Data            0                       # Table walker requests started/completed, data/inst
system.cpu.dtb.walker.walkRequestOrigin_Completed::Inst            0                       # Table walker requests started/completed, data/inst
system.cpu.dtb.walker.walkRequestOrigin_Completed::total            0                       # Table walker requests started/completed, data/inst
system.cpu.dtb.walker.walkRequestOrigin::total            0                       # Table walker requests started/completed, data/inst
system.cpu.dtb.walker.walks                         0                       # Table walker walks requested
system.cpu.dtb.write_accesses                       0                       # DTB write accesses
system.cpu.dtb.write_hits                           0                       # DTB write hits
system.cpu.dtb.write_misses                         0                       # DTB write misses
system.cpu.fetch2.amo_instructions                  0                       # Number of memory atomic instructions successfully decoded
system.cpu.fetch2.fp_instructions                   0                       # Number of floating point instructions successfully decoded
system.cpu.fetch2.int_instructions            4222241                       # Number of integer instructions successfully decoded
system.cpu.fetch2.load_instructions            445408                       # Number of memory load instructions successfully decoded
system.cpu.fetch2.store_instructions          1976214                       # Number of memory store instructions successfully decoded
system.cpu.fetch2.vec_instructions                  0                       # Number of SIMD instructions successfully decoded
system.cpu.idleCycles                         7909455                       # Total number of cycles that the object has spent stopped
system.cpu.ipc                               0.318456                       # IPC: instructions per cycle
system.cpu.itb.accesses                             0                       # DTB accesses
system.cpu.itb.align_faults                         0                       # Number of TLB faults due to alignment restrictions
system.cpu.itb.domain_faults                        0                       # Number of TLB faults due to domain restrictions
system.cpu.itb.flush_entries                        0                       # Number of entries that have been flushed from TLB
system.cpu.itb.flush_tlb                            0                       # Number of times complete TLB was flushed
system.cpu.itb.flush_tlb_asid                       0                       # Number of times TLB was flushed by ASID
system.cpu.itb.flush_tlb_mva                        0                       # Number of times TLB was flushed by MVA
system.cpu.itb.flush_tlb_mva_asid                   0                       # Number of times TLB was flushed by MVA & ASID
system.cpu.itb.hits                                 0                       # DTB hits
system.cpu.itb.inst_accesses                        0                       # ITB inst accesses
system.cpu.itb.inst_hits                            0                       # ITB inst hits
system.cpu.itb.inst_misses                          0                       # ITB inst misses
system.cpu.itb.misses                               0                       # DTB misses
system.cpu.itb.perms_faults                         0                       # Number of TLB faults due to permissions restrictions
system.cpu.itb.prefetch_faults                      0                       # Number of TLB faults due to prefetch
system.cpu.itb.read_accesses                        0                       # DTB read accesses
system.cpu.itb.read_hits                            0                       # DTB read hits
system.cpu.itb.read_misses                          0                       # DTB read misses
system.cpu.itb.stage2_mmu.stage2_tlb.accesses            0                       # DTB accesses
system.cpu.itb.stage2_mmu.stage2_tlb.align_faults            0                       # Number of TLB faults due to alignment restrictions
system.cpu.itb.stage2_mmu.stage2_tlb.domain_faults            0                       # Number of TLB faults due to domain restrictions
system.cpu.itb.stage2_mmu.stage2_tlb.flush_entries            0                       # Number of entries that have been flushed from TLB
system.cpu.itb.stage2_mmu.stage2_tlb.flush_tlb            0                       # Number of times complete TLB was flushed
system.cpu.itb.stage2_mmu.stage2_tlb.flush_tlb_asid            0                       # Number of times TLB was flushed by ASID
system.cpu.itb.stage2_mmu.stage2_tlb.flush_tlb_mva            0                       # Number of times TLB was flushed by MVA
system.cpu.itb.stage2_mmu.stage2_tlb.flush_tlb_mva_asid            0                       # Number of times TLB was flushed by MVA & ASID
system.cpu.itb.stage2_mmu.stage2_tlb.hits            0                       # DTB hits
system.cpu.itb.stage2_mmu.stage2_tlb.inst_accesses            0                       # ITB inst accesses
system.cpu.itb.stage2_mmu.stage2_tlb.inst_hits            0                       # ITB inst hits
system.cpu.itb.stage2_mmu.stage2_tlb.inst_misses            0                       # ITB inst misses
system.cpu.itb.stage2_mmu.stage2_tlb.misses            0                       # DTB misses
system.cpu.itb.stage2_mmu.stage2_tlb.perms_faults            0                       # Number of TLB faults due to permissions restrictions
system.cpu.itb.stage2_mmu.stage2_tlb.prefetch_faults            0                       # Number of TLB faults due to prefetch
system.cpu.itb.stage2_mmu.stage2_tlb.read_accesses            0                       # DTB read accesses
system.cpu.itb.stage2_mmu.stage2_tlb.read_hits            0                       # DTB read hits
system.cpu.itb.stage2_mmu.stage2_tlb.read_misses            0                       # DTB read misses
system.cpu.itb.stage2_mmu.stage2_tlb.walker.walkRequestOrigin_Requested::Data            0                       # Table walker requests started/completed, data/inst
system.cpu.itb.stage2_mmu.stage2_tlb.walker.walkRequestOrigin_Requested::Inst            0                       # Table walker requests started/completed, data/inst
system.cpu.itb.stage2_mmu.stage2_tlb.walker.walkRequestOrigin_Requested::total            0                       # Table walker requests started/completed, data/inst
system.cpu.itb.stage2_mmu.stage2_tlb.walker.walkRequestOrigin_Completed::Data            0                       # Table walker requests started/completed, data/inst
system.cpu.itb.stage2_mmu.stage2_tlb.walker.walkRequestOrigin_Completed::Inst            0                       # Table walker requests started/completed, data/inst
system.cpu.itb.stage2_mmu.stage2_tlb.walker.walkRequestOrigin_Completed::total            0                       # Table walker requests started/completed, data/inst
system.cpu.itb.stage2_mmu.stage2_tlb.walker.walkRequestOrigin::total            0                       # Table walker requests started/completed, data/inst
system.cpu.itb.stage2_mmu.stage2_tlb.walker.walks            0                       # Table walker walks requested
system.cpu.itb.stage2_mmu.stage2_tlb.write_accesses            0                       # DTB write accesses
system.cpu.itb.stage2_mmu.stage2_tlb.write_hits            0                       # DTB write hits
system.cpu.itb.stage2_mmu.stage2_tlb.write_misses            0                       # DTB write misses
system.cpu.itb.walker.walkRequestOrigin_Requested::Data            0                       # Table walker requests started/completed, data/inst
system.cpu.itb.walker.walkRequestOrigin_Requested::Inst            0                       # Table walker requests started/completed, data/inst
system.cpu.itb.walker.walkRequestOrigin_Requested::total            0                       # Table walker requests started/completed, data/inst
system.cpu.itb.walker.walkRequestOrigin_Completed::Data            0                       # Table walker requests started/completed, data/inst
system.cpu.itb.walker.walkRequestOrigin_Completed::Inst            0                       # Table walker requests started/completed, data/inst
system.cpu.itb.walker.walkRequestOrigin_Completed::total            0                       # Table walker requests started/completed, data/inst
system.cpu.itb.walker.walkRequestOrigin::total            0                       # Table walker requests started/completed, data/inst
system.cpu.itb.walker.walks                         0                       # Table walker walks requested
system.cpu.itb.write_accesses                       0                       # DTB write accesses
system.cpu.itb.write_hits                           0                       # DTB write hits
system.cpu.itb.write_misses                         0                       # DTB write misses
system.cpu.kern.inst.arm                            0                       # number of arm instructions executed
system.cpu.kern.inst.quiesce                      172                       # number of quiesce instructions executed
system.cpu.numCycles                         23848279                       # number of cpu cycles simulated
system.cpu.numFetchSuspends                       172                       # Number of times Execute suspended instruction fetching
system.cpu.numWorkItemsCompleted                    0                       # number of work items this cpu completed
system.cpu.numWorkItemsStarted                      0                       # number of work items this cpu started
system.cpu.op_class_0::No_OpClass                   0      0.00%      0.00% # Class of committed instruction
system.cpu.op_class_0::IntAlu                 5256139     67.94%     67.94% # Class of committed instruction
system.cpu.op_class_0::IntMult                  13347      0.17%     68.11% # Class of committed instruction
system.cpu.op_class_0::IntDiv                       0      0.00%     68.11% # Class of committed instruction
system.cpu.op_class_0::FloatAdd                     0      0.00%     68.11% # Class of committed instruction
system.cpu.op_class_0::FloatCmp                     0      0.00%     68.11% # Class of committed instruction
system.cpu.op_class_0::FloatCvt                     0      0.00%     68.11% # Class of committed instruction
system.cpu.op_class_0::FloatMult                    0      0.00%     68.11% # Class of committed instruction
system.cpu.op_class_0::FloatMultAcc                 0      0.00%     68.11% # Class of committed instruction
system.cpu.op_class_0::FloatDiv                     0      0.00%     68.11% # Class of committed instruction
system.cpu.op_class_0::FloatMisc                    0      0.00%     68.11% # Class of committed instruction
system.cpu.op_class_0::FloatSqrt                    0      0.00%     68.11% # Class of committed instruction
system.cpu.op_class_0::SimdAdd                      0      0.00%     68.11% # Class of committed instruction
system.cpu.op_class_0::SimdAddAcc                   0      0.00%     68.11% # Class of committed instruction
system.cpu.op_class_0::SimdAlu                      0      0.00%     68.11% # Class of committed instruction
system.cpu.op_class_0::SimdCmp                      0      0.00%     68.11% # Class of committed instruction
system.cpu.op_class_0::SimdCvt                      0      0.00%     68.11% # Class of committed instruction
system.cpu.op_class_0::SimdMisc                     0      0.00%     68.11% # Class of committed instruction
system.cpu.op_class_0::SimdMult                     0      0.00%     68.11% # Class of committed instruction
system.cpu.op_class_0::SimdMultAcc                  0      0.00%     68.11% # Class of committed instruction
system.cpu.op_class_0::SimdShift                    0      0.00%     68.11% # Class of committed instruction
system.cpu.op_class_0::SimdShiftAcc                 0      0.00%     68.11% # Class of committed instruction
system.cpu.op_class_0::SimdDiv                      0      0.00%     68.11% # Class of committed instruction
system.cpu.op_class_0::SimdSqrt                     0      0.00%     68.11% # Class of committed instruction
system.cpu.op_class_0::SimdFloatAdd                 0      0.00%     68.11% # Class of committed instruction
system.cpu.op_class_0::SimdFloatAlu                 0      0.00%     68.11% # Class of committed instruction
system.cpu.op_class_0::SimdFloatCmp                 0      0.00%     68.11% # Class of committed instruction
system.cpu.op_class_0::SimdFloatCvt                 0      0.00%     68.11% # Class of committed instruction
system.cpu.op_class_0::SimdFloatDiv                 0      0.00%     68.11% # Class of committed instruction
system.cpu.op_class_0::SimdFloatMisc                0      0.00%     68.11% # Class of committed instruction
system.cpu.op_class_0::SimdFloatMult                0      0.00%     68.11% # Class of committed instruction
system.cpu.op_class_0::SimdFloatMultAcc             0      0.00%     68.11% # Class of committed instruction
system.cpu.op_class_0::SimdFloatSqrt                0      0.00%     68.11% # Class of committed instruction
system.cpu.op_class_0::SimdReduceAdd                0      0.00%     68.11% # Class of committed instruction
system.cpu.op_class_0::SimdReduceAlu                0      0.00%     68.11% # Class of committed instruction
system.cpu.op_class_0::SimdReduceCmp                0      0.00%     68.11% # Class of committed instruction
system.cpu.op_class_0::SimdFloatReduceAdd            0      0.00%     68.11% # Class of committed instruction
system.cpu.op_class_0::SimdFloatReduceCmp            0      0.00%     68.11% # Class of committed instruction
system.cpu.op_class_0::SimdAes                      0      0.00%     68.11% # Class of committed instruction
system.cpu.op_class_0::SimdAesMix                   0      0.00%     68.11% # Class of committed instruction
system.cpu.op_class_0::SimdSha1Hash                 0      0.00%     68.11% # Class of committed instruction
system.cpu.op_class_0::SimdSha1Hash2                0      0.00%     68.11% # Class of committed instruction
system.cpu.op_class_0::SimdSha256Hash               0      0.00%     68.11% # Class of committed instruction
system.cpu.op_class_0::SimdSha256Hash2              0      0.00%     68.11% # Class of committed instruction
system.cpu.op_class_0::SimdShaSigma2                0      0.00%     68.11% # Class of committed instruction
system.cpu.op_class_0::SimdShaSigma3                0      0.00%     68.11% # Class of committed instruction
system.cpu.op_class_0::SimdPredAlu                  0      0.00%     68.11% # Class of committed instruction
system.cpu.op_class_0::MemRead                 440951      5.70%     73.81% # Class of committed instruction
system.cpu.op_class_0::MemWrite               2025937     26.19%    100.00% # Class of committed instruction
system.cpu.op_class_0::FloatMemRead                 0      0.00%    100.00% # Class of committed instruction
system.cpu.op_class_0::FloatMemWrite                0      0.00%    100.00% # Class of committed instruction
system.cpu.op_class_0::IprAccess                    0      0.00%    100.00% # Class of committed instruction
system.cpu.op_class_0::InstPrefetch                 0      0.00%    100.00% # Class of committed instruction
system.cpu.op_class_0::total                  7736374                       # Class of committed instruction
system.cpu.quiesceCycles                     13576535                       # Total number of cycles that CPU has spent quiesced or waiting for an interrupt
system.cpu.tickCycles                        15938824                       # Number of cycles that the object actually ticked
system.membus.snoop_filter.hit_multi_requests         1086                       # Number of requests hitting in the snoop filter with multiple (>1) holders of the requested data.
system.membus.snoop_filter.hit_multi_snoops            0                       # Number of snoops hitting in the snoop filter with multiple (>1) holders of the requested data.
system.membus.snoop_filter.hit_single_requests         9647                       # Number of requests hitting in the snoop filter with a single holder of the requested data.
system.membus.snoop_filter.hit_single_snoops            0                       # Number of snoops hitting in the snoop filter with a single holder of the requested data.
system.membus.snoop_filter.tot_requests       1790230                       # Total number of requests made to the snoop filter.
system.membus.snoop_filter.tot_snoops               0                       # Total number of snoops made to the snoop filter.
system.bridge.pwrStateResidencyTicks::UNDEFINED  37099023125                       # Cumulative time (in ticks) in various power states
system.voltage_domain.voltage                       1                       # Voltage in Volts
system.iocache.pwrStateResidencyTicks::UNDEFINED  37099023125                       # Cumulative time (in ticks) in various power states
system.iocache.blocked_cycles::no_mshrs             0                       # number of cycles access was blocked
system.iocache.blocked_cycles::no_targets            0                       # number of cycles access was blocked
system.iocache.blocked::no_mshrs                    0                       # number of cycles access was blocked
system.iocache.blocked::no_targets                  0                       # number of cycles access was blocked
system.iocache.avg_blocked_cycles::no_mshrs          nan                       # average number of cycles each access was blocked
system.iocache.avg_blocked_cycles::no_targets          nan                       # average number of cycles each access was blocked
system.iocache.replacements                         0                       # number of replacements
system.iocache.tags.pwrStateResidencyTicks::UNDEFINED  37099023125                       # Cumulative time (in ticks) in various power states
system.iocache.tags.tagsinuse                       0                       # Cycle average of tags in use
system.iocache.tags.total_refs                      0                       # Total number of references to valid blocks.
system.iocache.tags.sampled_refs                    0                       # Sample count of references to valid blocks.
system.iocache.tags.avg_refs                      nan                       # Average number of references to valid blocks.
system.iocache.tags.warmup_cycle                    0                       # Cycle when the warmup percentage was hit.
system.iocache.tags.tag_accesses                    0                       # Number of tag accesses
system.iocache.tags.data_accesses                   0                       # Number of data accesses
system.membus.pwrStateResidencyTicks::UNDEFINED  37099023125                       # Cumulative time (in ticks) in various power states
system.membus.trans_dist::ReadReq              639051                       # Transaction distribution
system.membus.trans_dist::ReadResp             648267                       # Transaction distribution
system.membus.trans_dist::WriteReq             263984                       # Transaction distribution
system.membus.trans_dist::WriteResp            263984                       # Transaction distribution
system.membus.trans_dist::WritebackDirty         1766                       # Transaction distribution
system.membus.trans_dist::WriteClean                1                       # Transaction distribution
system.membus.trans_dist::CleanEvict             7860                       # Transaction distribution
system.membus.trans_dist::ReadExReq               638                       # Transaction distribution
system.membus.trans_dist::ReadExResp              639                       # Transaction distribution
system.membus.trans_dist::ReadCleanReq           7145                       # Transaction distribution
system.membus.trans_dist::ReadSharedReq          2072                       # Transaction distribution
system.membus.trans_dist::CleanInvalidReq       885372                       # Transaction distribution
system.membus.trans_dist::InvalidateReq        885372                       # Transaction distribution
system.membus.pkt_count_system.cpu.icache.mem_side::system.realview.bootmem.port        21205                       # Packet count per connected master and slave (bytes)
system.membus.pkt_count_system.cpu.icache.mem_side::total        21205                       # Packet count per connected master and slave (bytes)
system.membus.pkt_count_system.cpu.dcache.mem_side::system.realview.bootmem.port          118                       # Packet count per connected master and slave (bytes)
system.membus.pkt_count_system.cpu.dcache.mem_side::system.realview.gic.pio         6972                       # Packet count per connected master and slave (bytes)
system.membus.pkt_count_system.cpu.dcache.mem_side::system.mem_ctrls.port      1778758                       # Packet count per connected master and slave (bytes)
system.membus.pkt_count_system.cpu.dcache.mem_side::system.acctest.mem2cls.slave        28354                       # Packet count per connected master and slave (bytes)
system.membus.pkt_count_system.cpu.dcache.mem_side::total      1814202                       # Packet count per connected master and slave (bytes)
system.membus.pkt_count_system.acctest.coherency_bus.master[0]::system.mem_ctrls.port      1770744                       # Packet count per connected master and slave (bytes)
system.membus.pkt_count_system.acctest.coherency_bus.master[0]::total      1770744                       # Packet count per connected master and slave (bytes)
system.membus.pkt_count::total                3606151                       # Packet count per connected master and slave (bytes)
system.membus.pkt_size_system.cpu.icache.mem_side::system.realview.bootmem.port       457216                       # Cumulative packet size per connected master and slave (bytes)
system.membus.pkt_size_system.cpu.icache.mem_side::total       457216                       # Cumulative packet size per connected master and slave (bytes)
system.membus.pkt_size_system.cpu.dcache.mem_side::system.realview.bootmem.port         2880                       # Cumulative packet size per connected master and slave (bytes)
system.membus.pkt_size_system.cpu.dcache.mem_side::system.realview.gic.pio        13944                       # Cumulative packet size per connected master and slave (bytes)
system.membus.pkt_size_system.cpu.dcache.mem_side::system.mem_ctrls.port       283712                       # Cumulative packet size per connected master and slave (bytes)
system.membus.pkt_size_system.cpu.dcache.mem_side::system.acctest.mem2cls.slave        38342                       # Cumulative packet size per connected master and slave (bytes)
system.membus.pkt_size_system.cpu.dcache.mem_side::total       338878                       # Cumulative packet size per connected master and slave (bytes)
system.membus.pkt_size_system.acctest.coherency_bus.master[0]::system.mem_ctrls.port     56662192                       # Cumulative packet size per connected master and slave (bytes)
system.membus.pkt_size_system.acctest.coherency_bus.master[0]::total     56662192                       # Cumulative packet size per connected master and slave (bytes)
system.membus.pkt_size::total                57458286                       # Cumulative packet size per connected master and slave (bytes)
system.membus.snoops                                0                       # Total snoops (count)
system.membus.snoopTraffic                          0                       # Total snoop traffic (bytes)
system.membus.snoop_fanout::samples           2684273                       # Request fanout histogram
system.membus.snoop_fanout::mean             0.000412                       # Request fanout histogram
system.membus.snoop_fanout::stdev            0.020294                       # Request fanout histogram
system.membus.snoop_fanout::underflows              0      0.00%      0.00% # Request fanout histogram
system.membus.snoop_fanout::0                 2683167     99.96%     99.96% # Request fanout histogram
system.membus.snoop_fanout::1                    1106      0.04%    100.00% # Request fanout histogram
system.membus.snoop_fanout::2                       0      0.00%    100.00% # Request fanout histogram
system.membus.snoop_fanout::3                       0      0.00%    100.00% # Request fanout histogram
system.membus.snoop_fanout::4                       0      0.00%    100.00% # Request fanout histogram
system.membus.snoop_fanout::overflows               0      0.00%    100.00% # Request fanout histogram
system.membus.snoop_fanout::min_value               0                       # Request fanout histogram
system.membus.snoop_fanout::max_value               1                       # Request fanout histogram
system.membus.snoop_fanout::total             2684273                       # Request fanout histogram
system.membus.reqLayer6.occupancy          4293911042                       # Layer occupancy (ticks)
system.membus.reqLayer6.utilization              18.4                       # Layer utilization (%)
system.membus.reqLayer7.occupancy            35824250                       # Layer occupancy (ticks)
system.membus.reqLayer7.utilization               0.2                       # Layer utilization (%)
system.membus.reqLayer1.occupancy            20730640                       # Layer occupancy (ticks)
system.membus.reqLayer1.utilization               0.1                       # Layer utilization (%)
system.membus.reqLayer2.occupancy             6760625                       # Layer occupancy (ticks)
system.membus.reqLayer2.utilization               0.0                       # Layer utilization (%)
system.membus.badaddr_responder.pwrStateResidencyTicks::UNDEFINED  37099023125                       # Cumulative time (in ticks) in various power states
system.membus.respLayer4.occupancy           34341265                       # Layer occupancy (ticks)
system.membus.respLayer4.utilization              0.1                       # Layer utilization (%)
system.membus.respLayer7.occupancy         3775514478                       # Layer occupancy (ticks)
system.membus.respLayer7.utilization             16.1                       # Layer utilization (%)
system.membus.respLayer3.occupancy           36522500                       # Layer occupancy (ticks)
system.membus.respLayer3.utilization              0.2                       # Layer utilization (%)
system.acctest.harris_non_max0_spm.pwrStateResidencyTicks::UNDEFINED  37099023125                       # Cumulative time (in ticks) in various power states
system.acctest.harris_non_max0_spm.bytes_read::.acctest.harris_non_max0.system.acctest.harris_non_max0       262144                       # Number of bytes read from this memory
system.acctest.harris_non_max0_spm.bytes_read::.acctest.harris_non_max0_dma        65536                       # Number of bytes read from this memory
system.acctest.harris_non_max0_spm.bytes_read::total       327680                       # Number of bytes read from this memory
system.acctest.harris_non_max0_spm.bytes_written::.acctest.harris_non_max0.system.acctest.harris_non_max0        65536                       # Number of bytes written to this memory
system.acctest.harris_non_max0_spm.bytes_written::.acctest.harris_non_max0_dma       262144                       # Number of bytes written to this memory
system.acctest.harris_non_max0_spm.bytes_written::total       327680                       # Number of bytes written to this memory
system.acctest.harris_non_max0_spm.num_reads::.acctest.harris_non_max0.system.acctest.harris_non_max0        65536                       # Number of read requests responded to by this memory
system.acctest.harris_non_max0_spm.num_reads::.acctest.harris_non_max0_dma         2048                       # Number of read requests responded to by this memory
system.acctest.harris_non_max0_spm.num_reads::total        67584                       # Number of read requests responded to by this memory
system.acctest.harris_non_max0_spm.num_writes::.acctest.harris_non_max0.system.acctest.harris_non_max0        65536                       # Number of write requests responded to by this memory
system.acctest.harris_non_max0_spm.num_writes::.acctest.harris_non_max0_dma         8192                       # Number of write requests responded to by this memory
system.acctest.harris_non_max0_spm.num_writes::total        73728                       # Number of write requests responded to by this memory
system.acctest.harris_non_max0_spm.bw_read::.acctest.harris_non_max0.system.acctest.harris_non_max0     11207281                       # Total read bandwidth from this memory (bytes/s)
system.acctest.harris_non_max0_spm.bw_read::.acctest.harris_non_max0_dma      2801820                       # Total read bandwidth from this memory (bytes/s)
system.acctest.harris_non_max0_spm.bw_read::total     14009101                       # Total read bandwidth from this memory (bytes/s)
system.acctest.harris_non_max0_spm.bw_write::.acctest.harris_non_max0.system.acctest.harris_non_max0      2801820                       # Write bandwidth from this memory (bytes/s)
system.acctest.harris_non_max0_spm.bw_write::.acctest.harris_non_max0_dma     11207281                       # Write bandwidth from this memory (bytes/s)
system.acctest.harris_non_max0_spm.bw_write::total     14009101                       # Write bandwidth from this memory (bytes/s)
system.acctest.harris_non_max0_spm.bw_total::.acctest.harris_non_max0.system.acctest.harris_non_max0     14009101                       # Total bandwidth to/from this memory (bytes/s)
system.acctest.harris_non_max0_spm.bw_total::.acctest.harris_non_max0_dma     14009101                       # Total bandwidth to/from this memory (bytes/s)
system.acctest.harris_non_max0_spm.bw_total::total     28018202                       # Total bandwidth to/from this memory (bytes/s)
system.acctest.elem_matrix2_spm.pwrStateResidencyTicks::UNDEFINED  37099023125                       # Cumulative time (in ticks) in various power states
system.acctest.elem_matrix2_spm.bytes_read::.acctest.elem_matrix0_dma       720896                       # Number of bytes read from this memory
system.acctest.elem_matrix2_spm.bytes_read::.acctest.elem_matrix1_dma       458752                       # Number of bytes read from this memory
system.acctest.elem_matrix2_spm.bytes_read::.acctest.elem_matrix2.system.acctest.elem_matrix2     17039360                       # Number of bytes read from this memory
system.acctest.elem_matrix2_spm.bytes_read::.acctest.elem_matrix2_dma      3276800                       # Number of bytes read from this memory
system.acctest.elem_matrix2_spm.bytes_read::.acctest.elem_matrix3_dma       589824                       # Number of bytes read from this memory
system.acctest.elem_matrix2_spm.bytes_read::total     22085632                       # Number of bytes read from this memory
system.acctest.elem_matrix2_spm.bytes_written::.acctest.elem_matrix2.system.acctest.elem_matrix2     10158080                       # Number of bytes written to this memory
system.acctest.elem_matrix2_spm.bytes_written::.acctest.elem_matrix2_dma     11075584                       # Number of bytes written to this memory
system.acctest.elem_matrix2_spm.bytes_written::total     21233664                       # Number of bytes written to this memory
system.acctest.elem_matrix2_spm.num_reads::.acctest.elem_matrix0_dma        22528                       # Number of read requests responded to by this memory
system.acctest.elem_matrix2_spm.num_reads::.acctest.elem_matrix1_dma        14336                       # Number of read requests responded to by this memory
system.acctest.elem_matrix2_spm.num_reads::.acctest.elem_matrix2.system.acctest.elem_matrix2      4259840                       # Number of read requests responded to by this memory
system.acctest.elem_matrix2_spm.num_reads::.acctest.elem_matrix2_dma       102400                       # Number of read requests responded to by this memory
system.acctest.elem_matrix2_spm.num_reads::.acctest.elem_matrix3_dma        18432                       # Number of read requests responded to by this memory
system.acctest.elem_matrix2_spm.num_reads::total      4417536                       # Number of read requests responded to by this memory
system.acctest.elem_matrix2_spm.num_writes::.acctest.elem_matrix2.system.acctest.elem_matrix2      2539520                       # Number of write requests responded to by this memory
system.acctest.elem_matrix2_spm.num_writes::.acctest.elem_matrix2_dma       346112                       # Number of write requests responded to by this memory
system.acctest.elem_matrix2_spm.num_writes::total      2885632                       # Number of write requests responded to by this memory
system.acctest.elem_matrix2_spm.bw_read::.acctest.elem_matrix0_dma     30820022                       # Total read bandwidth from this memory (bytes/s)
system.acctest.elem_matrix2_spm.bw_read::.acctest.elem_matrix1_dma     19612741                       # Total read bandwidth from this memory (bytes/s)
system.acctest.elem_matrix2_spm.bw_read::.acctest.elem_matrix2.system.acctest.elem_matrix2    728473253                       # Total read bandwidth from this memory (bytes/s)
system.acctest.elem_matrix2_spm.bw_read::.acctest.elem_matrix2_dma    140091010                       # Total read bandwidth from this memory (bytes/s)
system.acctest.elem_matrix2_spm.bw_read::.acctest.elem_matrix3_dma     25216382                       # Total read bandwidth from this memory (bytes/s)
system.acctest.elem_matrix2_spm.bw_read::total    944213409                       # Total read bandwidth from this memory (bytes/s)
system.acctest.elem_matrix2_spm.bw_write::.acctest.elem_matrix2.system.acctest.elem_matrix2    434282132                       # Write bandwidth from this memory (bytes/s)
system.acctest.elem_matrix2_spm.bw_write::.acctest.elem_matrix2_dma    473507614                       # Write bandwidth from this memory (bytes/s)
system.acctest.elem_matrix2_spm.bw_write::total    907789746                       # Write bandwidth from this memory (bytes/s)
system.acctest.elem_matrix2_spm.bw_total::.acctest.elem_matrix0_dma     30820022                       # Total bandwidth to/from this memory (bytes/s)
system.acctest.elem_matrix2_spm.bw_total::.acctest.elem_matrix1_dma     19612741                       # Total bandwidth to/from this memory (bytes/s)
system.acctest.elem_matrix2_spm.bw_total::.acctest.elem_matrix2.system.acctest.elem_matrix2   1162755385                       # Total bandwidth to/from this memory (bytes/s)
system.acctest.elem_matrix2_spm.bw_total::.acctest.elem_matrix2_dma    613598625                       # Total bandwidth to/from this memory (bytes/s)
system.acctest.elem_matrix2_spm.bw_total::.acctest.elem_matrix3_dma     25216382                       # Total bandwidth to/from this memory (bytes/s)
system.acctest.elem_matrix2_spm.bw_total::total   1852003155                       # Total bandwidth to/from this memory (bytes/s)
system.acctest.elem_matrix3_spm.pwrStateResidencyTicks::UNDEFINED  37099023125                       # Cumulative time (in ticks) in various power states
system.acctest.elem_matrix3_spm.bytes_read::.acctest.elem_matrix0_dma       393216                       # Number of bytes read from this memory
system.acctest.elem_matrix3_spm.bytes_read::.acctest.elem_matrix1_dma       655360                       # Number of bytes read from this memory
system.acctest.elem_matrix3_spm.bytes_read::.acctest.elem_matrix2_dma       524288                       # Number of bytes read from this memory
system.acctest.elem_matrix3_spm.bytes_read::.acctest.elem_matrix3.system.acctest.elem_matrix3     17432576                       # Number of bytes read from this memory
system.acctest.elem_matrix3_spm.bytes_read::.acctest.elem_matrix3_dma      3080192                       # Number of bytes read from this memory
system.acctest.elem_matrix3_spm.bytes_read::total     22085632                       # Number of bytes read from this memory
system.acctest.elem_matrix3_spm.bytes_written::.acctest.elem_matrix3.system.acctest.elem_matrix3     10092544                       # Number of bytes written to this memory
system.acctest.elem_matrix3_spm.bytes_written::.acctest.elem_matrix3_dma     11272192                       # Number of bytes written to this memory
system.acctest.elem_matrix3_spm.bytes_written::total     21364736                       # Number of bytes written to this memory
system.acctest.elem_matrix3_spm.num_reads::.acctest.elem_matrix0_dma        12288                       # Number of read requests responded to by this memory
system.acctest.elem_matrix3_spm.num_reads::.acctest.elem_matrix1_dma        20480                       # Number of read requests responded to by this memory
system.acctest.elem_matrix3_spm.num_reads::.acctest.elem_matrix2_dma        16384                       # Number of read requests responded to by this memory
system.acctest.elem_matrix3_spm.num_reads::.acctest.elem_matrix3.system.acctest.elem_matrix3      4358144                       # Number of read requests responded to by this memory
system.acctest.elem_matrix3_spm.num_reads::.acctest.elem_matrix3_dma        96256                       # Number of read requests responded to by this memory
system.acctest.elem_matrix3_spm.num_reads::total      4503552                       # Number of read requests responded to by this memory
system.acctest.elem_matrix3_spm.num_writes::.acctest.elem_matrix3.system.acctest.elem_matrix3      2523136                       # Number of write requests responded to by this memory
system.acctest.elem_matrix3_spm.num_writes::.acctest.elem_matrix3_dma       352256                       # Number of write requests responded to by this memory
system.acctest.elem_matrix3_spm.num_writes::total      2875392                       # Number of write requests responded to by this memory
system.acctest.elem_matrix3_spm.bw_read::.acctest.elem_matrix0_dma     16810921                       # Total read bandwidth from this memory (bytes/s)
system.acctest.elem_matrix3_spm.bw_read::.acctest.elem_matrix1_dma     28018202                       # Total read bandwidth from this memory (bytes/s)
system.acctest.elem_matrix3_spm.bw_read::.acctest.elem_matrix2_dma     22414562                       # Total read bandwidth from this memory (bytes/s)
system.acctest.elem_matrix3_spm.bw_read::.acctest.elem_matrix3.system.acctest.elem_matrix3    745284174                       # Total read bandwidth from this memory (bytes/s)
system.acctest.elem_matrix3_spm.bw_read::.acctest.elem_matrix3_dma    131685550                       # Total read bandwidth from this memory (bytes/s)
system.acctest.elem_matrix3_spm.bw_read::total    944213409                       # Total read bandwidth from this memory (bytes/s)
system.acctest.elem_matrix3_spm.bw_write::.acctest.elem_matrix3.system.acctest.elem_matrix3    431480311                       # Write bandwidth from this memory (bytes/s)
system.acctest.elem_matrix3_spm.bw_write::.acctest.elem_matrix3_dma    481913075                       # Write bandwidth from this memory (bytes/s)
system.acctest.elem_matrix3_spm.bw_write::total    913393387                       # Write bandwidth from this memory (bytes/s)
system.acctest.elem_matrix3_spm.bw_total::.acctest.elem_matrix0_dma     16810921                       # Total bandwidth to/from this memory (bytes/s)
system.acctest.elem_matrix3_spm.bw_total::.acctest.elem_matrix1_dma     28018202                       # Total bandwidth to/from this memory (bytes/s)
system.acctest.elem_matrix3_spm.bw_total::.acctest.elem_matrix2_dma     22414562                       # Total bandwidth to/from this memory (bytes/s)
system.acctest.elem_matrix3_spm.bw_total::.acctest.elem_matrix3.system.acctest.elem_matrix3   1176764486                       # Total bandwidth to/from this memory (bytes/s)
system.acctest.elem_matrix3_spm.bw_total::.acctest.elem_matrix3_dma    613598625                       # Total bandwidth to/from this memory (bytes/s)
system.acctest.elem_matrix3_spm.bw_total::total   1857606795                       # Total bandwidth to/from this memory (bytes/s)
system.acctest.local_bus.pwrStateResidencyTicks::UNDEFINED  37099023125                       # Cumulative time (in ticks) in various power states
system.acctest.local_bus.trans_dist::ReadReq       765952                       # Transaction distribution
system.acctest.local_bus.trans_dist::ReadResp       765952                       # Transaction distribution
system.acctest.local_bus.trans_dist::WriteReq      1558605                       # Transaction distribution
system.acctest.local_bus.trans_dist::WriteResp      1558605                       # Transaction distribution
system.acctest.local_bus.pkt_count_system.acctest.mem2cls.master::system.acctest.canny_non_max0.pio           48                       # Packet count per connected master and slave (bytes)
system.acctest.local_bus.pkt_count_system.acctest.mem2cls.master::system.acctest.canny_non_max0_dma.pio          112                       # Packet count per connected master and slave (bytes)
system.acctest.local_bus.pkt_count_system.acctest.mem2cls.master::system.acctest.convolution0.pio          320                       # Packet count per connected master and slave (bytes)
system.acctest.local_bus.pkt_count_system.acctest.mem2cls.master::system.acctest.convolution0_dma.pio          602                       # Packet count per connected master and slave (bytes)
system.acctest.local_bus.pkt_count_system.acctest.mem2cls.master::system.acctest.convolution1.pio          320                       # Packet count per connected master and slave (bytes)
system.acctest.local_bus.pkt_count_system.acctest.mem2cls.master::system.acctest.convolution1_dma.pio          574                       # Packet count per connected master and slave (bytes)
system.acctest.local_bus.pkt_count_system.acctest.mem2cls.master::system.acctest.edge_tracking0.pio           64                       # Packet count per connected master and slave (bytes)
system.acctest.local_bus.pkt_count_system.acctest.mem2cls.master::system.acctest.edge_tracking0_dma.pio          112                       # Packet count per connected master and slave (bytes)
system.acctest.local_bus.pkt_count_system.acctest.mem2cls.master::system.acctest.elem_matrix0.pio         3400                       # Packet count per connected master and slave (bytes)
system.acctest.local_bus.pkt_count_system.acctest.mem2cls.master::system.acctest.elem_matrix0_dma.pio         3430                       # Packet count per connected master and slave (bytes)
system.acctest.local_bus.pkt_count_system.acctest.mem2cls.master::system.acctest.elem_matrix1.pio         3140                       # Packet count per connected master and slave (bytes)
system.acctest.local_bus.pkt_count_system.acctest.mem2cls.master::system.acctest.elem_matrix1_dma.pio         3234                       # Packet count per connected master and slave (bytes)
system.acctest.local_bus.pkt_count_system.acctest.mem2cls.master::system.acctest.elem_matrix2.pio         3100                       # Packet count per connected master and slave (bytes)
system.acctest.local_bus.pkt_count_system.acctest.mem2cls.master::system.acctest.elem_matrix2_dma.pio         3066                       # Packet count per connected master and slave (bytes)
system.acctest.local_bus.pkt_count_system.acctest.mem2cls.master::system.acctest.elem_matrix3.pio         3080                       # Packet count per connected master and slave (bytes)
system.acctest.local_bus.pkt_count_system.acctest.mem2cls.master::system.acctest.elem_matrix3_dma.pio         3066                       # Packet count per connected master and slave (bytes)
system.acctest.local_bus.pkt_count_system.acctest.mem2cls.master::system.acctest.grayscale0.pio           80                       # Packet count per connected master and slave (bytes)
system.acctest.local_bus.pkt_count_system.acctest.mem2cls.master::system.acctest.grayscale0_dma.pio          196                       # Packet count per connected master and slave (bytes)
system.acctest.local_bus.pkt_count_system.acctest.mem2cls.master::system.acctest.harris_non_max0.pio           48                       # Packet count per connected master and slave (bytes)
system.acctest.local_bus.pkt_count_system.acctest.mem2cls.master::system.acctest.harris_non_max0_dma.pio          112                       # Packet count per connected master and slave (bytes)
system.acctest.local_bus.pkt_count_system.acctest.mem2cls.master::system.acctest.isp0.pio           96                       # Packet count per connected master and slave (bytes)
system.acctest.local_bus.pkt_count_system.acctest.mem2cls.master::system.acctest.isp0_dma.pio          154                       # Packet count per connected master and slave (bytes)
system.acctest.local_bus.pkt_count_system.acctest.mem2cls.master::total        28354                       # Packet count per connected master and slave (bytes)
system.acctest.local_bus.pkt_count_system.acctest.canny_non_max0_dma.dma::system.acctest.canny_non_max0_spm.port        32768                       # Packet count per connected master and slave (bytes)
system.acctest.local_bus.pkt_count_system.acctest.canny_non_max0_dma.dma::system.acctest.elem_matrix0_spm.port         4096                       # Packet count per connected master and slave (bytes)
system.acctest.local_bus.pkt_count_system.acctest.canny_non_max0_dma.dma::total        36864                       # Packet count per connected master and slave (bytes)
system.acctest.local_bus.pkt_count_system.acctest.convolution0_dma.dma::system.acctest.convolution0_spm.port       110688                       # Packet count per connected master and slave (bytes)
system.acctest.local_bus.pkt_count_system.acctest.convolution0_dma.dma::system.acctest.elem_matrix1_spm.port         4096                       # Packet count per connected master and slave (bytes)
system.acctest.local_bus.pkt_count_system.acctest.convolution0_dma.dma::system.acctest.grayscale0_spm.port         4096                       # Packet count per connected master and slave (bytes)
system.acctest.local_bus.pkt_count_system.acctest.convolution0_dma.dma::total       118880                       # Packet count per connected master and slave (bytes)
system.acctest.local_bus.pkt_count_system.acctest.convolution1_dma.dma::system.acctest.convolution1_spm.port       102496                       # Packet count per connected master and slave (bytes)
system.acctest.local_bus.pkt_count_system.acctest.convolution1_dma.dma::system.acctest.elem_matrix1_spm.port         4096                       # Packet count per connected master and slave (bytes)
system.acctest.local_bus.pkt_count_system.acctest.convolution1_dma.dma::system.acctest.grayscale0_spm.port         4096                       # Packet count per connected master and slave (bytes)
system.acctest.local_bus.pkt_count_system.acctest.convolution1_dma.dma::total       110688                       # Packet count per connected master and slave (bytes)
system.acctest.local_bus.pkt_count_system.acctest.edge_tracking0_dma.dma::system.acctest.canny_non_max0_spm.port        16384                       # Packet count per connected master and slave (bytes)
system.acctest.local_bus.pkt_count_system.acctest.edge_tracking0_dma.dma::system.acctest.edge_tracking0_spm.port        20480                       # Packet count per connected master and slave (bytes)
system.acctest.local_bus.pkt_count_system.acctest.edge_tracking0_dma.dma::total        36864                       # Packet count per connected master and slave (bytes)
system.acctest.local_bus.pkt_count_system.acctest.elem_matrix0_dma.dma::system.acctest.convolution0_spm.port         4096                       # Packet count per connected master and slave (bytes)
system.acctest.local_bus.pkt_count_system.acctest.elem_matrix0_dma.dma::system.acctest.convolution1_spm.port        16384                       # Packet count per connected master and slave (bytes)
system.acctest.local_bus.pkt_count_system.acctest.elem_matrix0_dma.dma::system.acctest.elem_matrix0_spm.port       991238                       # Packet count per connected master and slave (bytes)
system.acctest.local_bus.pkt_count_system.acctest.elem_matrix0_dma.dma::system.acctest.elem_matrix1_spm.port        53248                       # Packet count per connected master and slave (bytes)
system.acctest.local_bus.pkt_count_system.acctest.elem_matrix0_dma.dma::system.acctest.elem_matrix2_spm.port        45056                       # Packet count per connected master and slave (bytes)
system.acctest.local_bus.pkt_count_system.acctest.elem_matrix0_dma.dma::system.acctest.elem_matrix3_spm.port        24576                       # Packet count per connected master and slave (bytes)
system.acctest.local_bus.pkt_count_system.acctest.elem_matrix0_dma.dma::total      1134598                       # Packet count per connected master and slave (bytes)
system.acctest.local_bus.pkt_count_system.acctest.elem_matrix1_dma.dma::system.acctest.convolution0_spm.port        12288                       # Packet count per connected master and slave (bytes)
system.acctest.local_bus.pkt_count_system.acctest.elem_matrix1_dma.dma::system.acctest.convolution1_spm.port         8192                       # Packet count per connected master and slave (bytes)
system.acctest.local_bus.pkt_count_system.acctest.elem_matrix1_dma.dma::system.acctest.elem_matrix0_spm.port        36864                       # Packet count per connected master and slave (bytes)
system.acctest.local_bus.pkt_count_system.acctest.elem_matrix1_dma.dma::system.acctest.elem_matrix1_spm.port       942082                       # Packet count per connected master and slave (bytes)
system.acctest.local_bus.pkt_count_system.acctest.elem_matrix1_dma.dma::system.acctest.elem_matrix2_spm.port        28672                       # Packet count per connected master and slave (bytes)
system.acctest.local_bus.pkt_count_system.acctest.elem_matrix1_dma.dma::system.acctest.elem_matrix3_spm.port        40960                       # Packet count per connected master and slave (bytes)
system.acctest.local_bus.pkt_count_system.acctest.elem_matrix1_dma.dma::total      1069058                       # Packet count per connected master and slave (bytes)
system.acctest.local_bus.pkt_count_system.acctest.elem_matrix2_dma.dma::system.acctest.convolution1_spm.port         4096                       # Packet count per connected master and slave (bytes)
system.acctest.local_bus.pkt_count_system.acctest.elem_matrix2_dma.dma::system.acctest.elem_matrix0_spm.port        40960                       # Packet count per connected master and slave (bytes)
system.acctest.local_bus.pkt_count_system.acctest.elem_matrix2_dma.dma::system.acctest.elem_matrix1_spm.port        40960                       # Packet count per connected master and slave (bytes)
system.acctest.local_bus.pkt_count_system.acctest.elem_matrix2_dma.dma::system.acctest.elem_matrix2_spm.port       897024                       # Packet count per connected master and slave (bytes)
system.acctest.local_bus.pkt_count_system.acctest.elem_matrix2_dma.dma::system.acctest.elem_matrix3_spm.port        32768                       # Packet count per connected master and slave (bytes)
system.acctest.local_bus.pkt_count_system.acctest.elem_matrix2_dma.dma::total      1015808                       # Packet count per connected master and slave (bytes)
system.acctest.local_bus.pkt_count_system.acctest.elem_matrix3_dma.dma::system.acctest.convolution1_spm.port         4096                       # Packet count per connected master and slave (bytes)
system.acctest.local_bus.pkt_count_system.acctest.elem_matrix3_dma.dma::system.acctest.elem_matrix0_spm.port        28672                       # Packet count per connected master and slave (bytes)
system.acctest.local_bus.pkt_count_system.acctest.elem_matrix3_dma.dma::system.acctest.elem_matrix1_spm.port        20480                       # Packet count per connected master and slave (bytes)
system.acctest.local_bus.pkt_count_system.acctest.elem_matrix3_dma.dma::system.acctest.elem_matrix2_spm.port        36864                       # Packet count per connected master and slave (bytes)
system.acctest.local_bus.pkt_count_system.acctest.elem_matrix3_dma.dma::system.acctest.elem_matrix3_spm.port       897024                       # Packet count per connected master and slave (bytes)
system.acctest.local_bus.pkt_count_system.acctest.elem_matrix3_dma.dma::total       987136                       # Packet count per connected master and slave (bytes)
system.acctest.local_bus.pkt_count_system.acctest.grayscale0_dma.dma::system.acctest.grayscale0_spm.port        49152                       # Packet count per connected master and slave (bytes)
system.acctest.local_bus.pkt_count_system.acctest.grayscale0_dma.dma::system.acctest.isp0_spm.port        15360                       # Packet count per connected master and slave (bytes)
system.acctest.local_bus.pkt_count_system.acctest.grayscale0_dma.dma::total        64512                       # Packet count per connected master and slave (bytes)
system.acctest.local_bus.pkt_count_system.acctest.harris_non_max0_dma.dma::system.acctest.elem_matrix0_spm.port         8192                       # Packet count per connected master and slave (bytes)
system.acctest.local_bus.pkt_count_system.acctest.harris_non_max0_dma.dma::system.acctest.harris_non_max0_spm.port        20480                       # Packet count per connected master and slave (bytes)
system.acctest.local_bus.pkt_count_system.acctest.harris_non_max0_dma.dma::total        28672                       # Packet count per connected master and slave (bytes)
system.acctest.local_bus.pkt_count_system.acctest.isp0_dma.dma::system.acctest.isp0_spm.port        17680                       # Packet count per connected master and slave (bytes)
system.acctest.local_bus.pkt_count_system.acctest.isp0_dma.dma::total        17680                       # Packet count per connected master and slave (bytes)
system.acctest.local_bus.pkt_count::total      4649114                       # Packet count per connected master and slave (bytes)
system.acctest.local_bus.pkt_size_system.acctest.mem2cls.master::system.acctest.canny_non_max0.pio           60                       # Cumulative packet size per connected master and slave (bytes)
system.acctest.local_bus.pkt_size_system.acctest.mem2cls.master::system.acctest.canny_non_max0_dma.pio          176                       # Cumulative packet size per connected master and slave (bytes)
system.acctest.local_bus.pkt_size_system.acctest.mem2cls.master::system.acctest.convolution0.pio          448                       # Cumulative packet size per connected master and slave (bytes)
system.acctest.local_bus.pkt_size_system.acctest.mem2cls.master::system.acctest.convolution0_dma.pio          946                       # Cumulative packet size per connected master and slave (bytes)
system.acctest.local_bus.pkt_size_system.acctest.mem2cls.master::system.acctest.convolution1.pio          448                       # Cumulative packet size per connected master and slave (bytes)
system.acctest.local_bus.pkt_size_system.acctest.mem2cls.master::system.acctest.convolution1_dma.pio          902                       # Cumulative packet size per connected master and slave (bytes)
system.acctest.local_bus.pkt_size_system.acctest.mem2cls.master::system.acctest.edge_tracking0.pio           92                       # Cumulative packet size per connected master and slave (bytes)
system.acctest.local_bus.pkt_size_system.acctest.mem2cls.master::system.acctest.edge_tracking0_dma.pio          176                       # Cumulative packet size per connected master and slave (bytes)
system.acctest.local_bus.pkt_size_system.acctest.mem2cls.master::system.acctest.elem_matrix0.pio         3740                       # Cumulative packet size per connected master and slave (bytes)
system.acctest.local_bus.pkt_size_system.acctest.mem2cls.master::system.acctest.elem_matrix0_dma.pio         5390                       # Cumulative packet size per connected master and slave (bytes)
system.acctest.local_bus.pkt_size_system.acctest.mem2cls.master::system.acctest.elem_matrix1.pio         3454                       # Cumulative packet size per connected master and slave (bytes)
system.acctest.local_bus.pkt_size_system.acctest.mem2cls.master::system.acctest.elem_matrix1_dma.pio         5082                       # Cumulative packet size per connected master and slave (bytes)
system.acctest.local_bus.pkt_size_system.acctest.mem2cls.master::system.acctest.elem_matrix2.pio         3410                       # Cumulative packet size per connected master and slave (bytes)
system.acctest.local_bus.pkt_size_system.acctest.mem2cls.master::system.acctest.elem_matrix2_dma.pio         4818                       # Cumulative packet size per connected master and slave (bytes)
system.acctest.local_bus.pkt_size_system.acctest.mem2cls.master::system.acctest.elem_matrix3.pio         3388                       # Cumulative packet size per connected master and slave (bytes)
system.acctest.local_bus.pkt_size_system.acctest.mem2cls.master::system.acctest.elem_matrix3_dma.pio         4818                       # Cumulative packet size per connected master and slave (bytes)
system.acctest.local_bus.pkt_size_system.acctest.mem2cls.master::system.acctest.grayscale0.pio           88                       # Cumulative packet size per connected master and slave (bytes)
system.acctest.local_bus.pkt_size_system.acctest.mem2cls.master::system.acctest.grayscale0_dma.pio          308                       # Cumulative packet size per connected master and slave (bytes)
system.acctest.local_bus.pkt_size_system.acctest.mem2cls.master::system.acctest.harris_non_max0.pio           60                       # Cumulative packet size per connected master and slave (bytes)
system.acctest.local_bus.pkt_size_system.acctest.mem2cls.master::system.acctest.harris_non_max0_dma.pio          176                       # Cumulative packet size per connected master and slave (bytes)
system.acctest.local_bus.pkt_size_system.acctest.mem2cls.master::system.acctest.isp0.pio          120                       # Cumulative packet size per connected master and slave (bytes)
system.acctest.local_bus.pkt_size_system.acctest.mem2cls.master::system.acctest.isp0_dma.pio          242                       # Cumulative packet size per connected master and slave (bytes)
system.acctest.local_bus.pkt_size_system.acctest.mem2cls.master::total        38342                       # Cumulative packet size per connected master and slave (bytes)
system.acctest.local_bus.pkt_size_system.acctest.canny_non_max0_dma.dma::system.acctest.canny_non_max0_spm.port       524288                       # Cumulative packet size per connected master and slave (bytes)
system.acctest.local_bus.pkt_size_system.acctest.canny_non_max0_dma.dma::system.acctest.elem_matrix0_spm.port        65536                       # Cumulative packet size per connected master and slave (bytes)
system.acctest.local_bus.pkt_size_system.acctest.canny_non_max0_dma.dma::total       589824                       # Cumulative packet size per connected master and slave (bytes)
system.acctest.local_bus.pkt_size_system.acctest.convolution0_dma.dma::system.acctest.convolution0_spm.port      1770560                       # Cumulative packet size per connected master and slave (bytes)
system.acctest.local_bus.pkt_size_system.acctest.convolution0_dma.dma::system.acctest.elem_matrix1_spm.port        65536                       # Cumulative packet size per connected master and slave (bytes)
system.acctest.local_bus.pkt_size_system.acctest.convolution0_dma.dma::system.acctest.grayscale0_spm.port        65536                       # Cumulative packet size per connected master and slave (bytes)
system.acctest.local_bus.pkt_size_system.acctest.convolution0_dma.dma::total      1901632                       # Cumulative packet size per connected master and slave (bytes)
system.acctest.local_bus.pkt_size_system.acctest.convolution1_dma.dma::system.acctest.convolution1_spm.port      1639488                       # Cumulative packet size per connected master and slave (bytes)
system.acctest.local_bus.pkt_size_system.acctest.convolution1_dma.dma::system.acctest.elem_matrix1_spm.port        65536                       # Cumulative packet size per connected master and slave (bytes)
system.acctest.local_bus.pkt_size_system.acctest.convolution1_dma.dma::system.acctest.grayscale0_spm.port        65536                       # Cumulative packet size per connected master and slave (bytes)
system.acctest.local_bus.pkt_size_system.acctest.convolution1_dma.dma::total      1770560                       # Cumulative packet size per connected master and slave (bytes)
system.acctest.local_bus.pkt_size_system.acctest.edge_tracking0_dma.dma::system.acctest.canny_non_max0_spm.port       262144                       # Cumulative packet size per connected master and slave (bytes)
system.acctest.local_bus.pkt_size_system.acctest.edge_tracking0_dma.dma::system.acctest.edge_tracking0_spm.port       327680                       # Cumulative packet size per connected master and slave (bytes)
system.acctest.local_bus.pkt_size_system.acctest.edge_tracking0_dma.dma::total       589824                       # Cumulative packet size per connected master and slave (bytes)
system.acctest.local_bus.pkt_size_system.acctest.elem_matrix0_dma.dma::system.acctest.convolution0_spm.port        65536                       # Cumulative packet size per connected master and slave (bytes)
system.acctest.local_bus.pkt_size_system.acctest.elem_matrix0_dma.dma::system.acctest.convolution1_spm.port       262144                       # Cumulative packet size per connected master and slave (bytes)
system.acctest.local_bus.pkt_size_system.acctest.elem_matrix0_dma.dma::system.acctest.elem_matrix0_spm.port     15859724                       # Cumulative packet size per connected master and slave (bytes)
system.acctest.local_bus.pkt_size_system.acctest.elem_matrix0_dma.dma::system.acctest.elem_matrix1_spm.port       851968                       # Cumulative packet size per connected master and slave (bytes)
system.acctest.local_bus.pkt_size_system.acctest.elem_matrix0_dma.dma::system.acctest.elem_matrix2_spm.port       720896                       # Cumulative packet size per connected master and slave (bytes)
system.acctest.local_bus.pkt_size_system.acctest.elem_matrix0_dma.dma::system.acctest.elem_matrix3_spm.port       393216                       # Cumulative packet size per connected master and slave (bytes)
system.acctest.local_bus.pkt_size_system.acctest.elem_matrix0_dma.dma::total     18153484                       # Cumulative packet size per connected master and slave (bytes)
system.acctest.local_bus.pkt_size_system.acctest.elem_matrix1_dma.dma::system.acctest.convolution0_spm.port       196608                       # Cumulative packet size per connected master and slave (bytes)
system.acctest.local_bus.pkt_size_system.acctest.elem_matrix1_dma.dma::system.acctest.convolution1_spm.port       131072                       # Cumulative packet size per connected master and slave (bytes)
system.acctest.local_bus.pkt_size_system.acctest.elem_matrix1_dma.dma::system.acctest.elem_matrix0_spm.port       589824                       # Cumulative packet size per connected master and slave (bytes)
system.acctest.local_bus.pkt_size_system.acctest.elem_matrix1_dma.dma::system.acctest.elem_matrix1_spm.port     15073284                       # Cumulative packet size per connected master and slave (bytes)
system.acctest.local_bus.pkt_size_system.acctest.elem_matrix1_dma.dma::system.acctest.elem_matrix2_spm.port       458752                       # Cumulative packet size per connected master and slave (bytes)
system.acctest.local_bus.pkt_size_system.acctest.elem_matrix1_dma.dma::system.acctest.elem_matrix3_spm.port       655360                       # Cumulative packet size per connected master and slave (bytes)
system.acctest.local_bus.pkt_size_system.acctest.elem_matrix1_dma.dma::total     17104900                       # Cumulative packet size per connected master and slave (bytes)
system.acctest.local_bus.pkt_size_system.acctest.elem_matrix2_dma.dma::system.acctest.convolution1_spm.port        65536                       # Cumulative packet size per connected master and slave (bytes)
system.acctest.local_bus.pkt_size_system.acctest.elem_matrix2_dma.dma::system.acctest.elem_matrix0_spm.port       655360                       # Cumulative packet size per connected master and slave (bytes)
system.acctest.local_bus.pkt_size_system.acctest.elem_matrix2_dma.dma::system.acctest.elem_matrix1_spm.port       655360                       # Cumulative packet size per connected master and slave (bytes)
system.acctest.local_bus.pkt_size_system.acctest.elem_matrix2_dma.dma::system.acctest.elem_matrix2_spm.port     14352384                       # Cumulative packet size per connected master and slave (bytes)
system.acctest.local_bus.pkt_size_system.acctest.elem_matrix2_dma.dma::system.acctest.elem_matrix3_spm.port       524288                       # Cumulative packet size per connected master and slave (bytes)
system.acctest.local_bus.pkt_size_system.acctest.elem_matrix2_dma.dma::total     16252928                       # Cumulative packet size per connected master and slave (bytes)
system.acctest.local_bus.pkt_size_system.acctest.elem_matrix3_dma.dma::system.acctest.convolution1_spm.port        65536                       # Cumulative packet size per connected master and slave (bytes)
system.acctest.local_bus.pkt_size_system.acctest.elem_matrix3_dma.dma::system.acctest.elem_matrix0_spm.port       458752                       # Cumulative packet size per connected master and slave (bytes)
system.acctest.local_bus.pkt_size_system.acctest.elem_matrix3_dma.dma::system.acctest.elem_matrix1_spm.port       327680                       # Cumulative packet size per connected master and slave (bytes)
system.acctest.local_bus.pkt_size_system.acctest.elem_matrix3_dma.dma::system.acctest.elem_matrix2_spm.port       589824                       # Cumulative packet size per connected master and slave (bytes)
system.acctest.local_bus.pkt_size_system.acctest.elem_matrix3_dma.dma::system.acctest.elem_matrix3_spm.port     14352384                       # Cumulative packet size per connected master and slave (bytes)
system.acctest.local_bus.pkt_size_system.acctest.elem_matrix3_dma.dma::total     15794176                       # Cumulative packet size per connected master and slave (bytes)
system.acctest.local_bus.pkt_size_system.acctest.grayscale0_dma.dma::system.acctest.grayscale0_spm.port       786432                       # Cumulative packet size per connected master and slave (bytes)
system.acctest.local_bus.pkt_size_system.acctest.grayscale0_dma.dma::system.acctest.isp0_spm.port       245760                       # Cumulative packet size per connected master and slave (bytes)
system.acctest.local_bus.pkt_size_system.acctest.grayscale0_dma.dma::total      1032192                       # Cumulative packet size per connected master and slave (bytes)
system.acctest.local_bus.pkt_size_system.acctest.harris_non_max0_dma.dma::system.acctest.elem_matrix0_spm.port       131072                       # Cumulative packet size per connected master and slave (bytes)
system.acctest.local_bus.pkt_size_system.acctest.harris_non_max0_dma.dma::system.acctest.harris_non_max0_spm.port       327680                       # Cumulative packet size per connected master and slave (bytes)
system.acctest.local_bus.pkt_size_system.acctest.harris_non_max0_dma.dma::total       458752                       # Cumulative packet size per connected master and slave (bytes)
system.acctest.local_bus.pkt_size_system.acctest.isp0_dma.dma::system.acctest.isp0_spm.port       282656                       # Cumulative packet size per connected master and slave (bytes)
[...]
system.cpu.icache.tags.warmup_cycle                 0                       # Cycle when the warmup percentage was hit.
system.cpu.icache.tags.occ_blocks::.cpu.inst   461.907920                       # Average occupied blocks per requestor
system.cpu.icache.tags.occ_percent::.cpu.inst     0.902164                       # Average percentage of cache occupancy
system.cpu.icache.tags.occ_percent::total     0.902164                       # Average percentage of cache occupancy
system.cpu.icache.tags.occ_task_id_blocks::1024          477                       # Occupied blocks per task id
system.cpu.icache.tags.age_task_id_blocks_1024::0            5                       # Occupied blocks per task id
system.cpu.icache.tags.age_task_id_blocks_1024::2            9                       # Occupied blocks per task id
system.cpu.icache.tags.age_task_id_blocks_1024::3           30                       # Occupied blocks per task id
system.cpu.icache.tags.age_task_id_blocks_1024::4          433                       # Occupied blocks per task id
system.cpu.icache.tags.occ_task_id_percent::1024     0.931641                       # Percentage of cache occupancy per task id
system.cpu.icache.tags.tag_accesses           7418303                       # Number of tag accesses
system.cpu.icache.tags.data_accesses          7418303                       # Number of data accesses
system.cpu.dtb.walker.pwrStateResidencyTicks::UNDEFINED  37099243125                       # Cumulative time (in ticks) in various power states
system.cpu.dtb.stage2_mmu.stage2_tlb.walker.pwrStateResidencyTicks::UNDEFINED  37099243125                       # Cumulative time (in ticks) in various power states
system.cpu.dcache.pwrStateResidencyTicks::UNDEFINED  37099243125                       # Cumulative time (in ticks) in various power states
system.cpu.dcache.demand_hits::.cpu.data       673096                       # number of demand (read+write) hits
system.cpu.dcache.demand_hits::total           673096                       # number of demand (read+write) hits
system.cpu.dcache.overall_hits::.cpu.data       673096                       # number of overall hits
system.cpu.dcache.overall_hits::total          673096                       # number of overall hits
system.cpu.dcache.demand_misses::.cpu.data         3350                       # number of demand (read+write) misses
system.cpu.dcache.demand_misses::total           3350                       # number of demand (read+write) misses
system.cpu.dcache.overall_misses::.cpu.data         3350                       # number of overall misses
system.cpu.dcache.overall_misses::total          3350                       # number of overall misses
system.cpu.dcache.demand_miss_latency::.cpu.data    356446375                       # number of demand (read+write) miss cycles
system.cpu.dcache.demand_miss_latency::total    356446375                       # number of demand (read+write) miss cycles
system.cpu.dcache.overall_miss_latency::.cpu.data    356446375                       # number of overall miss cycles
system.cpu.dcache.overall_miss_latency::total    356446375                       # number of overall miss cycles
system.cpu.dcache.demand_accesses::.cpu.data       676446                       # number of demand (read+write) accesses
system.cpu.dcache.demand_accesses::total       676446                       # number of demand (read+write) accesses
system.cpu.dcache.overall_accesses::.cpu.data       676446                       # number of overall (read+write) accesses
system.cpu.dcache.overall_accesses::total       676446                       # number of overall (read+write) accesses
system.cpu.dcache.demand_miss_rate::.cpu.data     0.004952                       # miss rate for demand accesses
system.cpu.dcache.demand_miss_rate::total     0.004952                       # miss rate for demand accesses
system.cpu.dcache.overall_miss_rate::.cpu.data     0.004952                       # miss rate for overall accesses
system.cpu.dcache.overall_miss_rate::total     0.004952                       # miss rate for overall accesses
system.cpu.dcache.demand_avg_miss_latency::.cpu.data 106401.902985                       # average overall miss latency
system.cpu.dcache.demand_avg_miss_latency::total 106401.902985                       # average overall miss latency
system.cpu.dcache.overall_avg_miss_latency::.cpu.data 106401.902985                       # average overall miss latency
system.cpu.dcache.overall_avg_miss_latency::total 106401.902985                       # average overall miss latency
system.cpu.dcache.blocked_cycles::no_mshrs            0                       # number of cycles access was blocked
system.cpu.dcache.blocked_cycles::no_targets            0                       # number of cycles access was blocked
system.cpu.dcache.blocked::no_mshrs                 0                       # number of cycles access was blocked
system.cpu.dcache.blocked::no_targets               0                       # number of cycles access was blocked
system.cpu.dcache.avg_blocked_cycles::no_mshrs          nan                       # average number of cycles each access was blocked
system.cpu.dcache.avg_blocked_cycles::no_targets          nan                       # average number of cycles each access was blocked
system.cpu.dcache.writebacks::.writebacks         1767                       # number of writebacks
system.cpu.dcache.writebacks::total              1767                       # number of writebacks
system.cpu.dcache.demand_mshr_hits::.cpu.data          638                       # number of demand (read+write) MSHR hits
system.cpu.dcache.demand_mshr_hits::total          638                       # number of demand (read+write) MSHR hits
system.cpu.dcache.overall_mshr_hits::.cpu.data          638                       # number of overall MSHR hits
system.cpu.dcache.overall_mshr_hits::total          638                       # number of overall MSHR hits
system.cpu.dcache.demand_mshr_misses::.cpu.data         2712                       # number of demand (read+write) MSHR misses
system.cpu.dcache.demand_mshr_misses::total         2712                       # number of demand (read+write) MSHR misses
system.cpu.dcache.overall_mshr_misses::.cpu.data         2712                       # number of overall MSHR misses
system.cpu.dcache.overall_mshr_misses::total         2712                       # number of overall MSHR misses
system.cpu.dcache.overall_mshr_uncacheable_misses::.cpu.data        17663                       # number of overall MSHR uncacheable misses
system.cpu.dcache.overall_mshr_uncacheable_misses::total        17663                       # number of overall MSHR uncacheable misses
system.cpu.dcache.demand_mshr_miss_latency::.cpu.data    283772125                       # number of demand (read+write) MSHR miss cycles
system.cpu.dcache.demand_mshr_miss_latency::total    283772125                       # number of demand (read+write) MSHR miss cycles
system.cpu.dcache.overall_mshr_miss_latency::.cpu.data    283772125                       # number of overall MSHR miss cycles
system.cpu.dcache.overall_mshr_miss_latency::total    283772125                       # number of overall MSHR miss cycles
system.cpu.dcache.overall_mshr_uncacheable_latency::.cpu.data     37802000                       # number of overall MSHR uncacheable cycles
system.cpu.dcache.overall_mshr_uncacheable_latency::total     37802000                       # number of overall MSHR uncacheable cycles
system.cpu.dcache.demand_mshr_miss_rate::.cpu.data     0.004009                       # mshr miss rate for demand accesses
system.cpu.dcache.demand_mshr_miss_rate::total     0.004009                       # mshr miss rate for demand accesses
system.cpu.dcache.overall_mshr_miss_rate::.cpu.data     0.004009                       # mshr miss rate for overall accesses
system.cpu.dcache.overall_mshr_miss_rate::total     0.004009                       # mshr miss rate for overall accesses
system.cpu.dcache.demand_avg_mshr_miss_latency::.cpu.data 104635.739307                       # average overall mshr miss latency
system.cpu.dcache.demand_avg_mshr_miss_latency::total 104635.739307                       # average overall mshr miss latency
system.cpu.dcache.overall_avg_mshr_miss_latency::.cpu.data 104635.739307                       # average overall mshr miss latency
system.cpu.dcache.overall_avg_mshr_miss_latency::total 104635.739307                       # average overall mshr miss latency
system.cpu.dcache.overall_avg_mshr_uncacheable_latency::.cpu.data  2140.180037                       # average overall mshr uncacheable latency
system.cpu.dcache.overall_avg_mshr_uncacheable_latency::total  2140.180037                       # average overall mshr uncacheable latency
system.cpu.dcache.replacements                   2712                       # number of replacements
system.cpu.dcache.ReadReq_hits::.cpu.data       437573                       # number of ReadReq hits
system.cpu.dcache.ReadReq_hits::total          437573                       # number of ReadReq hits
system.cpu.dcache.ReadReq_misses::.cpu.data         2113                       # number of ReadReq misses
system.cpu.dcache.ReadReq_misses::total          2113                       # number of ReadReq misses
system.cpu.dcache.ReadReq_miss_latency::.cpu.data    225482875                       # number of ReadReq miss cycles
system.cpu.dcache.ReadReq_miss_latency::total    225482875                       # number of ReadReq miss cycles
system.cpu.dcache.ReadReq_accesses::.cpu.data       439686                       # number of ReadReq accesses(hits+misses)
system.cpu.dcache.ReadReq_accesses::total       439686                       # number of ReadReq accesses(hits+misses)
system.cpu.dcache.ReadReq_miss_rate::.cpu.data     0.004806                       # miss rate for ReadReq accesses
system.cpu.dcache.ReadReq_miss_rate::total     0.004806                       # miss rate for ReadReq accesses
system.cpu.dcache.ReadReq_avg_miss_latency::.cpu.data 106712.198296                       # average ReadReq miss latency
system.cpu.dcache.ReadReq_avg_miss_latency::total 106712.198296                       # average ReadReq miss latency
system.cpu.dcache.ReadReq_mshr_hits::.cpu.data           39                       # number of ReadReq MSHR hits
system.cpu.dcache.ReadReq_mshr_hits::total           39                       # number of ReadReq MSHR hits
system.cpu.dcache.ReadReq_mshr_misses::.cpu.data         2074                       # number of ReadReq MSHR misses
system.cpu.dcache.ReadReq_mshr_misses::total         2074                       # number of ReadReq MSHR misses
system.cpu.dcache.ReadReq_mshr_uncacheable::.cpu.data         1743                       # number of ReadReq MSHR uncacheable
system.cpu.dcache.ReadReq_mshr_uncacheable::total         1743                       # number of ReadReq MSHR uncacheable
system.cpu.dcache.ReadReq_mshr_miss_latency::.cpu.data    218021375                       # number of ReadReq MSHR miss cycles
system.cpu.dcache.ReadReq_mshr_miss_latency::total    218021375                       # number of ReadReq MSHR miss cycles
system.cpu.dcache.ReadReq_mshr_uncacheable_latency::.cpu.data     37802000                       # number of ReadReq MSHR uncacheable cycles
system.cpu.dcache.ReadReq_mshr_uncacheable_latency::total     37802000                       # number of ReadReq MSHR uncacheable cycles
system.cpu.dcache.ReadReq_mshr_miss_rate::.cpu.data     0.004717                       # mshr miss rate for ReadReq accesses
system.cpu.dcache.ReadReq_mshr_miss_rate::total     0.004717                       # mshr miss rate for ReadReq accesses
system.cpu.dcache.ReadReq_avg_mshr_miss_latency::.cpu.data 105121.202989                       # average ReadReq mshr miss latency
system.cpu.dcache.ReadReq_avg_mshr_miss_latency::total 105121.202989                       # average ReadReq mshr miss latency
system.cpu.dcache.ReadReq_avg_mshr_uncacheable_latency::.cpu.data 21687.894435                       # average ReadReq mshr uncacheable latency
system.cpu.dcache.ReadReq_avg_mshr_uncacheable_latency::total 21687.894435                       # average ReadReq mshr uncacheable latency
system.cpu.dcache.WriteReq_hits::.cpu.data       235523                       # number of WriteReq hits
system.cpu.dcache.WriteReq_hits::total         235523                       # number of WriteReq hits
system.cpu.dcache.WriteReq_misses::.cpu.data         1237                       # number of WriteReq misses
system.cpu.dcache.WriteReq_misses::total         1237                       # number of WriteReq misses
system.cpu.dcache.WriteReq_miss_latency::.cpu.data    130963500                       # number of WriteReq miss cycles
system.cpu.dcache.WriteReq_miss_latency::total    130963500                       # number of WriteReq miss cycles
system.cpu.dcache.WriteReq_accesses::.cpu.data       236760                       # number of WriteReq accesses(hits+misses)
system.cpu.dcache.WriteReq_accesses::total       236760                       # number of WriteReq accesses(hits+misses)
system.cpu.dcache.WriteReq_miss_rate::.cpu.data     0.005225                       # miss rate for WriteReq accesses
system.cpu.dcache.WriteReq_miss_rate::total     0.005225                       # miss rate for WriteReq accesses
system.cpu.dcache.WriteReq_avg_miss_latency::.cpu.data 105871.867421                       # average WriteReq miss latency
system.cpu.dcache.WriteReq_avg_miss_latency::total 105871.867421                       # average WriteReq miss latency
system.cpu.dcache.WriteReq_mshr_hits::.cpu.data          599                       # number of WriteReq MSHR hits
system.cpu.dcache.WriteReq_mshr_hits::total          599                       # number of WriteReq MSHR hits
system.cpu.dcache.WriteReq_mshr_misses::.cpu.data          638                       # number of WriteReq MSHR misses
system.cpu.dcache.WriteReq_mshr_misses::total          638                       # number of WriteReq MSHR misses
system.cpu.dcache.WriteReq_mshr_uncacheable::.cpu.data        15920                       # number of WriteReq MSHR uncacheable
system.cpu.dcache.WriteReq_mshr_uncacheable::total        15920                       # number of WriteReq MSHR uncacheable
system.cpu.dcache.WriteReq_mshr_miss_latency::.cpu.data     65750750                       # number of WriteReq MSHR miss cycles
system.cpu.dcache.WriteReq_mshr_miss_latency::total     65750750                       # number of WriteReq MSHR miss cycles
system.cpu.dcache.WriteReq_mshr_miss_rate::.cpu.data     0.002695                       # mshr miss rate for WriteReq accesses
system.cpu.dcache.WriteReq_mshr_miss_rate::total     0.002695                       # mshr miss rate for WriteReq accesses
system.cpu.dcache.WriteReq_avg_mshr_miss_latency::.cpu.data 103057.601881                       # average WriteReq mshr miss latency
system.cpu.dcache.WriteReq_avg_mshr_miss_latency::total 103057.601881                       # average WriteReq mshr miss latency
system.cpu.dcache.CleanInvalidReq_mshr_misses::.cpu.data       885372                       # number of CleanInvalidReq MSHR misses
system.cpu.dcache.CleanInvalidReq_mshr_misses::total       885372                       # number of CleanInvalidReq MSHR misses
system.cpu.dcache.CleanInvalidReq_mshr_miss_latency::.cpu.data   9268312875                       # number of CleanInvalidReq MSHR miss cycles
system.cpu.dcache.CleanInvalidReq_mshr_miss_latency::total   9268312875                       # number of CleanInvalidReq MSHR miss cycles
system.cpu.dcache.CleanInvalidReq_mshr_miss_rate::.cpu.data          inf                       # mshr miss rate for CleanInvalidReq accesses
system.cpu.dcache.CleanInvalidReq_mshr_miss_rate::total          inf                       # mshr miss rate for CleanInvalidReq accesses
system.cpu.dcache.CleanInvalidReq_avg_mshr_miss_latency::.cpu.data 10468.269693                       # average CleanInvalidReq mshr miss latency
system.cpu.dcache.CleanInvalidReq_avg_mshr_miss_latency::total 10468.269693                       # average CleanInvalidReq mshr miss latency
system.cpu.dcache.InvalidateReq_mshr_hits::.cpu.data       287702                       # number of InvalidateReq MSHR hits
system.cpu.dcache.InvalidateReq_mshr_hits::total       287702                       # number of InvalidateReq MSHR hits
system.cpu.dcache.InvalidateReq_mshr_misses::.cpu.data       597670                       # number of InvalidateReq MSHR misses
system.cpu.dcache.InvalidateReq_mshr_misses::total       597670                       # number of InvalidateReq MSHR misses
system.cpu.dcache.InvalidateReq_mshr_miss_latency::.cpu.data   9064462417                       # number of InvalidateReq MSHR miss cycles
system.cpu.dcache.InvalidateReq_mshr_miss_latency::total   9064462417                       # number of InvalidateReq MSHR miss cycles
system.cpu.dcache.InvalidateReq_mshr_miss_rate::.cpu.data          inf                       # mshr miss rate for InvalidateReq accesses
system.cpu.dcache.InvalidateReq_mshr_miss_rate::total          inf                       # mshr miss rate for InvalidateReq accesses
system.cpu.dcache.InvalidateReq_avg_mshr_miss_latency::.cpu.data 15166.333289                       # average InvalidateReq mshr miss latency
system.cpu.dcache.InvalidateReq_avg_mshr_miss_latency::total 15166.333289                       # average InvalidateReq mshr miss latency
system.cpu.dcache.tags.pwrStateResidencyTicks::UNDEFINED  37099243125                       # Cumulative time (in ticks) in various power states
system.cpu.dcache.tags.tagsinuse           511.846132                       # Cycle average of tags in use
system.cpu.dcache.tags.total_refs              677978                       # Total number of references to valid blocks.
system.cpu.dcache.tags.sampled_refs              3225                       # Sample count of references to valid blocks.
system.cpu.dcache.tags.avg_refs            210.225736                       # Average number of references to valid blocks.
system.cpu.dcache.tags.warmup_cycle                 0                       # Cycle when the warmup percentage was hit.
system.cpu.dcache.tags.occ_blocks::.cpu.data   511.846132                       # Average occupied blocks per requestor
system.cpu.dcache.tags.occ_percent::.cpu.data     0.999699                       # Average percentage of cache occupancy
system.cpu.dcache.tags.occ_percent::total     0.999699                       # Average percentage of cache occupancy
system.cpu.dcache.tags.occ_task_id_blocks::1024          512                       # Occupied blocks per task id
system.cpu.dcache.tags.age_task_id_blocks_1024::0            3                       # Occupied blocks per task id
system.cpu.dcache.tags.age_task_id_blocks_1024::2           23                       # Occupied blocks per task id
system.cpu.dcache.tags.age_task_id_blocks_1024::3          216                       # Occupied blocks per task id
system.cpu.dcache.tags.age_task_id_blocks_1024::4          270                       # Occupied blocks per task id
system.cpu.dcache.tags.occ_task_id_percent::1024            1                       # Percentage of cache occupancy per task id
system.cpu.dcache.tags.tag_accesses           9791473                       # Number of tag accesses
system.cpu.dcache.tags.data_accesses          9791473                       # Number of data accesses
system.cpu.itb.walker.pwrStateResidencyTicks::UNDEFINED  37099243125                       # Cumulative time (in ticks) in various power states
system.cpu.itb.stage2_mmu.stage2_tlb.walker.pwrStateResidencyTicks::UNDEFINED  37099243125                       # Cumulative time (in ticks) in various power states

---------- End Simulation Statistics   ----------
