gem5 Simulator System.  http://gem5.org
gem5 is copyrighted software; use the --copyright option for details.

gem5 compiled Nov  5 2021 13:21:15
gem5 started Nov  9 2021 06:44:20
gem5 executing on node4x10a.cs.rochester.edu, pid 60877
command line: /u/sgupta45/gem5-SALAM/build/ARM/gem5.opt --debug-flags=HWACC,CommInterface,LLVMInterface,StreamDma,NoncoherentDma --outdir=BM_ARM_OUT/canny_4_deblur_4_gru_0_harris_0_lstm_4_APRX3_pipeline configs/SALAM/scheduler.py --mem-size=4GB --mem-type=LPDDR3_1600_1x32 --kernel=/u/sgupta45/gem5-SALAM/benchmarks/scheduler/sw/bin/canny_4_deblur_4_gru_0_harris_0_lstm_4_APRX3.elf --disk-image=/u/sgupta45/gem5-SALAM/baremetal/common/fake.iso --machine-type=VExpress_GEM5_V1 --dtb-file=none --bare-metal --cpu-type=ex5_LITTLE --cpu-clock=1.6GHz --accpath=/u/sgupta45/gem5-SALAM/benchmarks --caches

Global frequency set at 1000000000000 ticks per second
Cycle Counts Loaded!
Cycle Counts Loaded!
Cycle Counts Loaded!
Cycle Counts Loaded!
Cycle Counts Loaded!
Cycle Counts Loaded!
Cycle Counts Loaded!
Cycle Counts Loaded!
Cycle Counts Loaded!
Cycle Counts Loaded!
Cycle Counts Loaded!
**** REAL SIMULATION ****
290270829875: system.acctest.elem_matrix0_dma: SRC:0x0000000087b04a28, DST:0x0000000024000020, LEN:65536
290294069875: system.acctest.elem_matrix0_dma: Transfer completed in 23.24 us
290299562125: system.acctest.elem_matrix0_dma: SRC:0x00000000854f47e8, DST:0x0000000024010020, LEN:65536
290322802125: system.acctest.elem_matrix0_dma: Transfer completed in 23.24 us
290340637750: system.acctest.elem_matrix1_dma: SRC:0x0000000087b2fe28, DST:0x0000000024100020, LEN:65536
********************************************************************************
system.acctest.elem_matrix0.compute
   ========= Performance Analysis =============
   Setup Time:                      2.92286seconds
   Simulation Time:                 43.943seconds
   System Clock:                    1GHz
   Transistor Latency:              1ns
   Runtime:                         16394 cycles
   Runtime:                         16.394 us
   Stalls:                          1 cycles
   Executed Nodes:                  16392 cycles

********************************************************************************
   ========= Performance Analysis =================
   Setup Time:                      2.92286e+09ns
   Simulation Time:                 4.3943e+10ns
   System Clock:                    1GHz
   Transistor Latency:              0ns
   Runtime:                         16394 cycles
   Runtime:                         1.6394e-06 seconds
   Stalls:                          1 cycles
       Load Only:                   0 cycles
       Store Only:                  1 cycles
       Compute Only:                0 cycles
       Compute & Store:             0 cycles
       Load & Store:                0 cycles
       Load & Compute:              0 cycles
       Load & Compute & Store:      0 cycles
   Executed Nodes:                  16392 cycles
       Load Only:                   0 cycles
       Store Only:                  5 cycles
       Compute Only:                1 cycles
       Compute & Store:             32 cycles
       Load & Store:                0 cycles
       Load & Compute:              7 cycles
       Load & Compute & Store:      16347 cycles

   ========= Runtime FU's ========= (Max | Avg) ===
   Counter FU's:                      32 | 0.031233
   Integer Add/Sub FU's:               0 | 0.000000
   Integer Mul/Div FU's:               0 | 0.000000
   Integer Shifter FU's:               0 | 0.000000
   Integer Bitwise FU's:               1 | 0.000061
   Floating Point Float Add/Sub:       1 | 0.999390
   Floating Point Double Add/Sub:      0 | 0.000000
   Floating Point Float Mul/Div:       0 | 0.000000
   Floating Point Double Mul/Div:      0 | 0.000000
   0 Cycle Compare FU's:             101 | 0.031672
   GEP Instruction FU's:              96 | 0.031231
   Type Conversion FU's:               7 | 0.004523

   ========= Static FU's ==========================
   Counter FU's:                    0
   Integer Add/Sub FU's:            0
   Integer Mul/Div FU's:            0
   Integer Shifter FU's:            0
   Integer Bitwise FU's:            0
   Floating Point Float Add/Sub:    0
   Floating Point Double Add/Sub:   0
   Floating Point Float Mul/Div:    0
   Floating Point Double Mul/Div:   0
   0 Cycle Compare FU's:            0
   GEP Instruction FU's:            0
   Type Conversion FU's:            0
   Other:                           0

   ========= Pipeline Register Usage =============
   Total Number of Registers:       5641
   Max Register Usage Per Cycle:    135
   Avg Register Usage Per Cycle:    8.089301
   Avg Register Size (Bytes):       5.980606

   ========= Memory Configuration =================
   Cache Bus Ports:                 0
   Shared Cache Size:               0kB
   Local Bus Ports:                 0
   Private SPM Size:                256kB
   Private Read Ports:              0
   Private Write Ports:             0
   Private Read Bus Width:          64
   Private Write Bus Width:         64
       Memory Reads:                0
       Memory Writes:               0
   ========= Power Analysis ======================
   FU Leakage Power:                0.015866 mW 
   FU Dynamic Power:                0.231200 mW 
   FU Total Power:                  0.247066 mW 

   Registers Leakage Power:          0.003521 mW 
   Registers Dynamic Power:          0.015322 mW 
       Register Reads (Bits):        132616
       Register Writes (Bits):       133658
   Registers Total Power:            0.018843 mW

   SPM Leakage Power:               0.099590 mW
   SPM Read Dynamic Power:          0.965320 mW
   SPM Write Dynamic Power:         0.561696 mW
   SPM Total Power:                 1.626606 mW

   Cache Leakage Power:             0.000000 mW
   Cache Read Dynamic Power:        0.000000 mW
   Cache Write Dynamic Power:       0.000000 mW
   Cache Total Power:               0.000000 mW

   Accelerator Power:               0.265909 mW
   Accelerator Power (SPM):         1.892515 mW
   Accelerator Power (Cache):       0.265909 mW

   ========= Area Analysis =======================
   FU Area:                         2113.963867 um^2 (0.002114 mm^2)
   Register Area:                   286.180725 um^2 (0.000286 mm^2)
   SPM Area:                        1894.672457 um^2 (0.001895 mm^2)
   Cache Area:                      0.000000 um^2 (0.000000 mm^2)

   Accelerator Area:                2400.144531 um^2 (0.002400 mm^2)
   Accelerator Area (SPM):          4294.816988 um^2 (0.004295 mm^2)
   Accelerator Area (Cache):        2400.144531 um^2 (0.002400 mm^2)

   ========= SPM Resizing  =======================
   SPM Optimized Leakage Power:     0.003640 mW
   SPM Opt Area:                    97.220725 um^2

290363887750: system.acctest.elem_matrix1_dma: Transfer completed in 23.25 us
290369357125: system.acctest.elem_matrix1_dma: SRC:0x0000000085e74828, DST:0x0000000024110020, LEN:65536
290392497125: system.acctest.elem_matrix1_dma: Transfer completed in 23.14 us
290409534875: system.acctest.elem_matrix2_dma: SRC:0x0000000087b5b228, DST:0x0000000024200020, LEN:65536
********************************************************************************
system.acctest.elem_matrix1.compute
   ========= Performance Analysis =============
   Setup Time:                      5.199289seconds
   Simulation Time:                 50.509133seconds
   System Clock:                    1.000000GHz
   Transistor Latency:              1ns
   Runtime:                         16394 cycles
   Runtime:                         16.394000 us
   Stalls:                          1 cycles
   Executed Nodes:                  16392 cycles

********************************************************************************
   ========= Performance Analysis =================
   Setup Time:                      5199289240.000000ns
   Simulation Time:                 50509132900.000000ns
   System Clock:                    1.000000GHz
   Transistor Latency:              0ns
   Runtime:                         16394 cycles
   Runtime:                         0.000002 seconds
   Stalls:                          1 cycles
       Load Only:                   0 cycles
       Store Only:                  1 cycles
       Compute Only:                0 cycles
       Compute & Store:             0 cycles
       Load & Store:                0 cycles
       Load & Compute:              0 cycles
       Load & Compute & Store:      0 cycles
   Executed Nodes:                  16392 cycles
       Load Only:                   0 cycles
       Store Only:                  5 cycles
       Compute Only:                1 cycles
       Compute & Store:             32 cycles
       Load & Store:                0 cycles
       Load & Compute:              7 cycles
       Load & Compute & Store:      16347 cycles

   ========= Runtime FU's ========= (Max | Avg) ===
   Counter FU's:                      32 | 0.031233
   Integer Add/Sub FU's:               0 | 0.000000
   Integer Mul/Div FU's:               0 | 0.000000
   Integer Shifter FU's:               0 | 0.000000
   Integer Bitwise FU's:               1 | 0.000061
   Floating Point Float Add/Sub:       1 | 0.999390
   Floating Point Double Add/Sub:      0 | 0.000000
   Floating Point Float Mul/Div:       0 | 0.000000
   Floating Point Double Mul/Div:      0 | 0.000000
   0 Cycle Compare FU's:             101 | 0.031672
   GEP Instruction FU's:              96 | 0.031231
   Type Conversion FU's:               7 | 0.004523

   ========= Static FU's ==========================
   Counter FU's:                    0
   Integer Add/Sub FU's:            0
   Integer Mul/Div FU's:            0
   Integer Shifter FU's:            0
   Integer Bitwise FU's:            0
   Floating Point Float Add/Sub:    0
   Floating Point Double Add/Sub:   0
   Floating Point Float Mul/Div:    0
   Floating Point Double Mul/Div:   0
   0 Cycle Compare FU's:            0
   GEP Instruction FU's:            0
   Type Conversion FU's:            0
   Other:                           0

   ========= Pipeline Register Usage =============
   Total Number of Registers:       5641
   Max Register Usage Per Cycle:    135
   Avg Register Usage Per Cycle:    8.089301
   Avg Register Size (Bytes):       5.980606

   ========= Memory Configuration =================
   Cache Bus Ports:                 0
   Shared Cache Size:               0kB
   Local Bus Ports:                 0
   Private SPM Size:                256kB
   Private Read Ports:              0
   Private Write Ports:             0
   Private Read Bus Width:          64
   Private Write Bus Width:         64
       Memory Reads:                0
       Memory Writes:               0
   ========= Power Analysis ======================
   FU Leakage Power:                0.015866 mW 
   FU Dynamic Power:                0.231200 mW 
   FU Total Power:                  0.247066 mW 

   Registers Leakage Power:          0.003521 mW 
   Registers Dynamic Power:          0.015322 mW 
       Register Reads (Bits):        132616
       Register Writes (Bits):       133658
   Registers Total Power:            0.018843 mW

   SPM Leakage Power:               0.099590 mW
   SPM Read Dynamic Power:          0.965320 mW
   SPM Write Dynamic Power:         0.561696 mW
   SPM Total Power:                 1.626606 mW

   Cache Leakage Power:             0.000000 mW
   Cache Read Dynamic Power:        0.000000 mW
   Cache Write Dynamic Power:       0.000000 mW
   Cache Total Power:               0.000000 mW

   Accelerator Power:               0.265909 mW
   Accelerator Power (SPM):         1.892515 mW
   Accelerator Power (Cache):       0.265909 mW

   ========= Area Analysis =======================
   FU Area:                         2113.963867 um^2 (0.002114 mm^2)
   Register Area:                   286.180725 um^2 (0.000286 mm^2)
   SPM Area:                        1894.672457 um^2 (0.001895 mm^2)
   Cache Area:                      0.000000 um^2 (0.000000 mm^2)

   Accelerator Area:                2400.144531 um^2 (0.002400 mm^2)
   Accelerator Area (SPM):          4294.816988 um^2 (0.004295 mm^2)
   Accelerator Area (Cache):        2400.144531 um^2 (0.002400 mm^2)

   ========= SPM Resizing  =======================
   SPM Optimized Leakage Power:     0.003640 mW
   SPM Opt Area:                    97.220725 um^2

290432734875: system.acctest.elem_matrix2_dma: Transfer completed in 23.2 us
290438230625: system.acctest.elem_matrix2_dma: SRC:0x00000000867f4868, DST:0x0000000024210020, LEN:65536
290461360625: system.acctest.elem_matrix2_dma: Transfer completed in 23.13 us
290478554875: system.acctest.elem_matrix3_dma: SRC:0x0000000087b86628, DST:0x0000000024300020, LEN:65536
********************************************************************************
system.acctest.elem_matrix2.compute
   ========= Performance Analysis =============
   Setup Time:                      5.790929seconds
   Simulation Time:                 52.858873seconds
   System Clock:                    1.000000GHz
   Transistor Latency:              1ns
   Runtime:                         16394 cycles
   Runtime:                         16.394000 us
   Stalls:                          1 cycles
   Executed Nodes:                  16392 cycles

********************************************************************************
   ========= Performance Analysis =================
   Setup Time:                      5790929226.000000ns
   Simulation Time:                 52858872959.000000ns
   System Clock:                    1.000000GHz
   Transistor Latency:              0ns
   Runtime:                         16394 cycles
   Runtime:                         0.000002 seconds
   Stalls:                          1 cycles
       Load Only:                   0 cycles
       Store Only:                  1 cycles
       Compute Only:                0 cycles
       Compute & Store:             0 cycles
       Load & Store:                0 cycles
       Load & Compute:              0 cycles
       Load & Compute & Store:      0 cycles
   Executed Nodes:                  16392 cycles
       Load Only:                   0 cycles
       Store Only:                  5 cycles
       Compute Only:                1 cycles
       Compute & Store:             32 cycles
       Load & Store:                0 cycles
       Load & Compute:              7 cycles
       Load & Compute & Store:      16347 cycles

   ========= Runtime FU's ========= (Max | Avg) ===
   Counter FU's:                      32 | 0.031233
   Integer Add/Sub FU's:               0 | 0.000000
   Integer Mul/Div FU's:               0 | 0.000000
   Integer Shifter FU's:               0 | 0.000000
   Integer Bitwise FU's:               1 | 0.000061
   Floating Point Float Add/Sub:       1 | 0.999390
   Floating Point Double Add/Sub:      0 | 0.000000
   Floating Point Float Mul/Div:       0 | 0.000000
   Floating Point Double Mul/Div:      0 | 0.000000
   0 Cycle Compare FU's:             101 | 0.031672
   GEP Instruction FU's:              96 | 0.031231
   Type Conversion FU's:               7 | 0.004523

   ========= Static FU's ==========================
   Counter FU's:                    0
   Integer Add/Sub FU's:            0
   Integer Mul/Div FU's:            0
   Integer Shifter FU's:            0
   Integer Bitwise FU's:            0
   Floating Point Float Add/Sub:    0
   Floating Point Double Add/Sub:   0
   Floating Point Float Mul/Div:    0
   Floating Point Double Mul/Div:   0
   0 Cycle Compare FU's:            0
   GEP Instruction FU's:            0
   Type Conversion FU's:            0
   Other:                           0

   ========= Pipeline Register Usage =============
   Total Number of Registers:       5641
   Max Register Usage Per Cycle:    135
   Avg Register Usage Per Cycle:    8.089301
   Avg Register Size (Bytes):       5.980606

   ========= Memory Configuration =================
   Cache Bus Ports:                 0
   Shared Cache Size:               0kB
   Local Bus Ports:                 0
   Private SPM Size:                256kB
   Private Read Ports:              0
   Private Write Ports:             0
   Private Read Bus Width:          64
   Private Write Bus Width:         64
       Memory Reads:                0
       Memory Writes:               0
   ========= Power Analysis ======================
   FU Leakage Power:                0.015866 mW 
   FU Dynamic Power:                0.231200 mW 
   FU Total Power:                  0.247066 mW 

   Registers Leakage Power:          0.003521 mW 
   Registers Dynamic Power:          0.015322 mW 
       Register Reads (Bits):        132616
       Register Writes (Bits):       133658
   Registers Total Power:            0.018843 mW

   SPM Leakage Power:               0.099590 mW
   SPM Read Dynamic Power:          0.965320 mW
   SPM Write Dynamic Power:         0.561696 mW
   SPM Total Power:                 1.626606 mW

   Cache Leakage Power:             0.000000 mW
   Cache Read Dynamic Power:        0.000000 mW
   Cache Write Dynamic Power:       0.000000 mW
   Cache Total Power:               0.000000 mW

   Accelerator Power:               0.265909 mW
   Accelerator Power (SPM):         1.892515 mW
   Accelerator Power (Cache):       0.265909 mW

   ========= Area Analysis =======================
   FU Area:                         2113.963867 um^2 (0.002114 mm^2)
   Register Area:                   286.180725 um^2 (0.000286 mm^2)
   SPM Area:                        1894.672457 um^2 (0.001895 mm^2)
   Cache Area:                      0.000000 um^2 (0.000000 mm^2)

   Accelerator Area:                2400.144531 um^2 (0.002400 mm^2)
   Accelerator Area (SPM):          4294.816988 um^2 (0.004295 mm^2)
   Accelerator Area (Cache):        2400.144531 um^2 (0.002400 mm^2)

   ========= SPM Resizing  =======================
   SPM Optimized Leakage Power:     0.003640 mW
   SPM Opt Area:                    97.220725 um^2

290501594875: system.acctest.elem_matrix3_dma: Transfer completed in 23.04 us
290507070625: system.acctest.elem_matrix3_dma: SRC:0x00000000871748a8, DST:0x0000000024310020, LEN:65536
290530330625: system.acctest.elem_matrix3_dma: Transfer completed in 23.26 us
290548489875: system.acctest.isp0_dma: SRC:0x000000008532d200, DST:0x0000000027000020, LEN:16900
********************************************************************************
system.acctest.elem_matrix3.compute
   ========= Performance Analysis =============
   Setup Time:                      6.136451seconds
   Simulation Time:                 52.348832seconds
   System Clock:                    1.000000GHz
   Transistor Latency:              1ns
   Runtime:                         16394 cycles
   Runtime:                         16.394000 us
   Stalls:                          1 cycles
   Executed Nodes:                  16392 cycles

********************************************************************************
   ========= Performance Analysis =================
   Setup Time:                      6136450604.000000ns
   Simulation Time:                 52348831955.000000ns
   System Clock:                    1.000000GHz
   Transistor Latency:              0ns
   Runtime:                         16394 cycles
   Runtime:                         0.000002 seconds
   Stalls:                          1 cycles
       Load Only:                   0 cycles
       Store Only:                  1 cycles
       Compute Only:                0 cycles
       Compute & Store:             0 cycles
       Load & Store:                0 cycles
       Load & Compute:              0 cycles
       Load & Compute & Store:      0 cycles
   Executed Nodes:                  16392 cycles
       Load Only:                   0 cycles
       Store Only:                  5 cycles
       Compute Only:                1 cycles
       Compute & Store:             32 cycles
       Load & Store:                0 cycles
       Load & Compute:              7 cycles
       Load & Compute & Store:      16347 cycles

   ========= Runtime FU's ========= (Max | Avg) ===
   Counter FU's:                      32 | 0.031233
   Integer Add/Sub FU's:               0 | 0.000000
   Integer Mul/Div FU's:               0 | 0.000000
   Integer Shifter FU's:               0 | 0.000000
   Integer Bitwise FU's:               1 | 0.000061
   Floating Point Float Add/Sub:       1 | 0.999390
   Floating Point Double Add/Sub:      0 | 0.000000
   Floating Point Float Mul/Div:       0 | 0.000000
   Floating Point Double Mul/Div:      0 | 0.000000
   0 Cycle Compare FU's:             101 | 0.031672
   GEP Instruction FU's:              96 | 0.031231
   Type Conversion FU's:               7 | 0.004523

   ========= Static FU's ==========================
   Counter FU's:                    0
   Integer Add/Sub FU's:            0
   Integer Mul/Div FU's:            0
   Integer Shifter FU's:            0
   Integer Bitwise FU's:            0
   Floating Point Float Add/Sub:    0
   Floating Point Double Add/Sub:   0
   Floating Point Float Mul/Div:    0
   Floating Point Double Mul/Div:   0
   0 Cycle Compare FU's:            0
   GEP Instruction FU's:            0
   Type Conversion FU's:            0
   Other:                           0

   ========= Pipeline Register Usage =============
   Total Number of Registers:       5641
   Max Register Usage Per Cycle:    135
   Avg Register Usage Per Cycle:    8.089301
   Avg Register Size (Bytes):       5.980606

   ========= Memory Configuration =================
   Cache Bus Ports:                 0
   Shared Cache Size:               0kB
   Local Bus Ports:                 0
   Private SPM Size:                256kB
   Private Read Ports:              0
   Private Write Ports:             0
   Private Read Bus Width:          64
   Private Write Bus Width:         64
       Memory Reads:                0
       Memory Writes:               0
   ========= Power Analysis ======================
   FU Leakage Power:                0.015866 mW 
   FU Dynamic Power:                0.231200 mW 
   FU Total Power:                  0.247066 mW 

   Registers Leakage Power:          0.003521 mW 
   Registers Dynamic Power:          0.015322 mW 
       Register Reads (Bits):        132616
       Register Writes (Bits):       133658
   Registers Total Power:            0.018843 mW

   SPM Leakage Power:               0.099590 mW
   SPM Read Dynamic Power:          0.965320 mW
   SPM Write Dynamic Power:         0.561696 mW
   SPM Total Power:                 1.626606 mW

   Cache Leakage Power:             0.000000 mW
   Cache Read Dynamic Power:        0.000000 mW
   Cache Write Dynamic Power:       0.000000 mW
   Cache Total Power:               0.000000 mW

   Accelerator Power:               0.265909 mW
   Accelerator Power (SPM):         1.892515 mW
   Accelerator Power (Cache):       0.265909 mW

   ========= Area Analysis =======================
   FU Area:                         2113.963867 um^2 (0.002114 mm^2)
   Register Area:                   286.180725 um^2 (0.000286 mm^2)
   SPM Area:                        1894.672457 um^2 (0.001895 mm^2)
   Cache Area:                      0.000000 um^2 (0.000000 mm^2)

   Accelerator Area:                2400.144531 um^2 (0.002400 mm^2)
   Accelerator Area (SPM):          4294.816988 um^2 (0.004295 mm^2)
   Accelerator Area (Cache):        2400.144531 um^2 (0.002400 mm^2)

   ========= SPM Resizing  =======================
   SPM Optimized Leakage Power:     0.003640 mW
   SPM Opt Area:                    97.220725 um^2

290552469875: system.acctest.isp0_dma: Transfer completed in 3.98 us
290571826375: system.acctest.elem_matrix0_dma: SRC:0x0000000024020020, DST:0x00000000855047f0, LEN:65536
290583676375: system.acctest.elem_matrix0_dma: Transfer completed in 11.85 us
********************************************************************************
system.acctest.isp0.compute
   ========= Performance Analysis =============
   Setup Time:                      0.310172seconds
   Simulation Time:                 239.050348seconds
   System Clock:                    1.000000GHz
   Transistor Latency:              1ns
   Runtime:                         34857 cycles
   Runtime:                         34.857000 us
   Stalls:                          1 cycles
   Executed Nodes:                  34855 cycles

********************************************************************************
   ========= Performance Analysis =================
   Setup Time:                      310172312.000000ns
   Simulation Time:                 239050348266.000000ns
   System Clock:                    1.000000GHz
   Transistor Latency:              0ns
   Runtime:                         34857 cycles
   Runtime:                         0.000003 seconds
   Stalls:                          1 cycles
       Load Only:                   0 cycles
       Store Only:                  1 cycles
       Compute Only:                0 cycles
       Compute & Store:             0 cycles
       Load & Store:                0 cycles
       Load & Compute:              0 cycles
       Load & Compute & Store:      0 cycles
   Executed Nodes:                  34855 cycles
       Load Only:                   0 cycles
       Store Only:                  1 cycles
       Compute Only:                3716 cycles
       Compute & Store:             18631 cycles
       Load & Store:                0 cycles
       Load & Compute:              3340 cycles
       Load & Compute & Store:      9167 cycles

   ========= Runtime FU's ========= (Max | Avg) ===
   Counter FU's:                      10 | 0.118160
   Integer Add/Sub FU's:              74 | 0.084377
   Integer Mul/Div FU's:              11 | 0.043920
   Integer Shifter FU's:               7 | 0.335903
   Integer Bitwise FU's:               4 | 0.059486
   Floating Point Float Add/Sub:      49 | 0.119993
   Floating Point Double Add/Sub:      0 | 0.000000
   Floating Point Float Mul/Div:      73 | 0.645039
   Floating Point Double Mul/Div:      0 | 0.000000
   0 Cycle Compare FU's:              91 | 0.606525
   GEP Instruction FU's:              33 | 0.117509
   Type Conversion FU's:             108 | 0.401632

   ========= Static FU's ==========================
   Counter FU's:                    0
   Integer Add/Sub FU's:            0
   Integer Mul/Div FU's:            0
   Integer Shifter FU's:            0
   Integer Bitwise FU's:            0
   Floating Point Float Add/Sub:    0
   Floating Point Double Add/Sub:   0
   Floating Point Float Mul/Div:    0
   Floating Point Double Mul/Div:   0
   0 Cycle Compare FU's:            0
   GEP Instruction FU's:            0
   Type Conversion FU's:            0
   Other:                           0

   ========= Pipeline Register Usage =============
   Total Number of Registers:       1620
   Max Register Usage Per Cycle:    148
   Avg Register Usage Per Cycle:    58.786843
   Avg Register Size (Bytes):       5.073357

   ========= Memory Configuration =================
   Cache Bus Ports:                 0
   Shared Cache Size:               0kB
   Local Bus Ports:                 0
   Private SPM Size:                112kB
   Private Read Ports:              0
   Private Write Ports:             0
   Private Read Bus Width:          64
   Private Write Bus Width:         64
       Memory Reads:                0
       Memory Writes:               0
   ========= Power Analysis ======================
   FU Leakage Power:                1.512678 mW 
   FU Dynamic Power:                9.402902 mW 
   FU Total Power:                  10.915580 mW 

   Registers Leakage Power:          0.021654 mW 
   Registers Dynamic Power:          3.083750 mW 
       Register Reads (Bits):        2049133
       Register Writes (Bits):       2049168
   Registers Total Power:            3.105404 mW

   SPM Leakage Power:               0.054673 mW
   SPM Read Dynamic Power:          7.521408 mW
   SPM Write Dynamic Power:         3.922488 mW
   SPM Total Power:                 11.498569 mW

   Cache Leakage Power:             0.000000 mW
   Cache Read Dynamic Power:        0.000000 mW
   Cache Write Dynamic Power:       0.000000 mW
   Cache Total Power:               0.000000 mW

   Accelerator Power:               14.020984 mW
   Accelerator Power (SPM):         25.519553 mW
   Accelerator Power (Cache):       14.020984 mW

   ========= Area Analysis =======================
   FU Area:                         159031.812500 um^2 (0.159032 mm^2)
   Register Area:                   1760.064941 um^2 (0.001760 mm^2)
   SPM Area:                        1537.371337 um^2 (0.001537 mm^2)
   Cache Area:                      0.000000 um^2 (0.000000 mm^2)

   Accelerator Area:                160791.875000 um^2 (0.160792 mm^2)
   Accelerator Area (SPM):          162329.246337 um^2 (0.162329 mm^2)
   Accelerator Area (Cache):        160791.875000 um^2 (0.160792 mm^2)

   ========= SPM Resizing  =======================
   SPM Optimized Leakage Power:     0.005165 mW
   SPM Opt Area:                    291.630286 um^2

290598998500: system.acctest.elem_matrix0_dma: SRC:0x00000000854747e8, DST:0x0000000024000020, LEN:65536
290622098500: system.acctest.elem_matrix0_dma: Transfer completed in 23.1 us
********************************************************************************
system.acctest.elem_matrix0.compute
   ========= Performance Analysis =============
   Setup Time:                      6.245046seconds
   Simulation Time:                 48.556674seconds
   System Clock:                    1.000000GHz
   Transistor Latency:              1ns
   Runtime:                         16392 cycles
   Runtime:                         16.392000 us
   Stalls:                          0 cycles
   Executed Nodes:                  16391 cycles

********************************************************************************
   ========= Performance Analysis =================
   Setup Time:                      6245046190.000000ns
   Simulation Time:                 48556674199.000000ns
   System Clock:                    1.000000GHz
   Transistor Latency:              0ns
   Runtime:                         16392 cycles
   Runtime:                         0.000002 seconds
   Stalls:                          0 cycles
       Load Only:                   0 cycles
       Store Only:                  0 cycles
       Compute Only:                0 cycles
       Compute & Store:             0 cycles
       Load & Store:                0 cycles
       Load & Compute:              0 cycles
       Load & Compute & Store:      0 cycles
   Executed Nodes:                  16391 cycles
       Load Only:                   0 cycles
       Store Only:                  4 cycles
       Compute Only:                1 cycles
       Compute & Store:             32 cycles
       Load & Store:                0 cycles
       Load & Compute:              6 cycles
       Load & Compute & Store:      16348 cycles

   ========= Runtime FU's ========= (Max | Avg) ===
   Counter FU's:                      32 | 0.031237
   Integer Add/Sub FU's:               0 | 0.000000
   Integer Mul/Div FU's:               0 | 0.000000
   Integer Shifter FU's:               0 | 0.000000
   Integer Bitwise FU's:               1 | 0.000061
   Floating Point Float Add/Sub:       0 | 0.000000
   Floating Point Double Add/Sub:      0 | 0.000000
   Floating Point Float Mul/Div:       1 | 0.999512
   Floating Point Double Mul/Div:      0 | 0.000000
   0 Cycle Compare FU's:             101 | 0.031657
   GEP Instruction FU's:              96 | 0.031235
   Type Conversion FU's:               7 | 0.004523

   ========= Static FU's ==========================
   Counter FU's:                    0
   Integer Add/Sub FU's:            0
   Integer Mul/Div FU's:            0
   Integer Shifter FU's:            0
   Integer Bitwise FU's:            0
   Floating Point Float Add/Sub:    0
   Floating Point Double Add/Sub:   0
   Floating Point Float Mul/Div:    0
   Floating Point Double Mul/Div:   0
   0 Cycle Compare FU's:            0
   GEP Instruction FU's:            0
   Type Conversion FU's:            0
   Other:                           0

   ========= Pipeline Register Usage =============
   Total Number of Registers:       5641
   Max Register Usage Per Cycle:    135
   Avg Register Usage Per Cycle:    8.090288
   Avg Register Size (Bytes):       5.980606

   ========= Memory Configuration =================
   Cache Bus Ports:                 0
   Shared Cache Size:               0kB
   Local Bus Ports:                 0
   Private SPM Size:                256kB
   Private Read Ports:              0
   Private Write Ports:             0
   Private Read Bus Width:          64
   Private Write Bus Width:         64
       Memory Reads:                0
       Memory Writes:               0
   ========= Power Analysis ======================
   FU Leakage Power:                0.045377 mW 
   FU Dynamic Power:                0.293182 mW 
   FU Total Power:                  0.338559 mW 

   Registers Leakage Power:          0.003521 mW 
   Registers Dynamic Power:          0.015320 mW 
       Register Reads (Bits):        132616
       Register Writes (Bits):       133658
   Registers Total Power:            0.018841 mW

   SPM Leakage Power:               0.099590 mW
   SPM Read Dynamic Power:          1.510371 mW
   SPM Write Dynamic Power:         1.004807 mW
   SPM Total Power:                 2.614768 mW

   Cache Leakage Power:             0.000000 mW
   Cache Read Dynamic Power:        0.000000 mW
   Cache Write Dynamic Power:       0.000000 mW
   Cache Total Power:               0.000000 mW

   Accelerator Power:               0.357400 mW
   Accelerator Power (SPM):         2.972168 mW
   Accelerator Power (Cache):       0.357400 mW

   ========= Area Analysis =======================
   FU Area:                         5472.068359 um^2 (0.005472 mm^2)
   Register Area:                   286.180725 um^2 (0.000286 mm^2)
   SPM Area:                        1894.672457 um^2 (0.001895 mm^2)
   Cache Area:                      0.000000 um^2 (0.000000 mm^2)

   Accelerator Area:                5758.249023 um^2 (0.005758 mm^2)
   Accelerator Area (SPM):          7652.921481 um^2 (0.007653 mm^2)
   Accelerator Area (Cache):        5758.249023 um^2 (0.005758 mm^2)

   ========= SPM Resizing  =======================
   SPM Optimized Leakage Power:     0.003640 mW
   SPM Opt Area:                    97.220725 um^2

290647626375: system.acctest.elem_matrix1_dma: SRC:0x0000000024120020, DST:0x0000000085e84830, LEN:65536
290659526375: system.acctest.elem_matrix1_dma: Transfer completed in 11.9 us
290674777750: system.acctest.elem_matrix1_dma: SRC:0x0000000024020020, DST:0x0000000024100020, LEN:65536
290685027750: system.acctest.elem_matrix1_dma: Transfer completed in 10.25 us
290690565625: system.acctest.elem_matrix1_dma: SRC:0x00000000854947e8, DST:0x0000000024110020, LEN:65536
290713755625: system.acctest.elem_matrix1_dma: Transfer completed in 23.19 us
********************************************************************************
system.acctest.elem_matrix1.compute
   ========= Performance Analysis =============
   Setup Time:                      5.966285seconds
   Simulation Time:                 47.645765seconds
   System Clock:                    1.000000GHz
   Transistor Latency:              1ns
   Runtime:                         16392 cycles
   Runtime:                         16.392000 us
   Stalls:                          0 cycles
   Executed Nodes:                  16391 cycles

********************************************************************************
   ========= Performance Analysis =================
   Setup Time:                      5966285303.000000ns
   Simulation Time:                 47645765146.000000ns
   System Clock:                    1.000000GHz
   Transistor Latency:              0ns
   Runtime:                         16392 cycles
   Runtime:                         0.000002 seconds
   Stalls:                          0 cycles
       Load Only:                   0 cycles
       Store Only:                  0 cycles
       Compute Only:                0 cycles
       Compute & Store:             0 cycles
       Load & Store:                0 cycles
       Load & Compute:              0 cycles
       Load & Compute & Store:      0 cycles
   Executed Nodes:                  16391 cycles
       Load Only:                   0 cycles
       Store Only:                  4 cycles
       Compute Only:                1 cycles
       Compute & Store:             32 cycles
       Load & Store:                0 cycles
       Load & Compute:              6 cycles
       Load & Compute & Store:      16348 cycles

   ========= Runtime FU's ========= (Max | Avg) ===
   Counter FU's:                      32 | 0.031237
   Integer Add/Sub FU's:               0 | 0.000000
   Integer Mul/Div FU's:               0 | 0.000000
   Integer Shifter FU's:               0 | 0.000000
   Integer Bitwise FU's:               1 | 0.000061
   Floating Point Float Add/Sub:       0 | 0.000000
   Floating Point Double Add/Sub:      0 | 0.000000
   Floating Point Float Mul/Div:       1 | 0.999512
   Floating Point Double Mul/Div:      0 | 0.000000
   0 Cycle Compare FU's:             101 | 0.031657
   GEP Instruction FU's:              96 | 0.031235
   Type Conversion FU's:               7 | 0.004523

   ========= Static FU's ==========================
   Counter FU's:                    0
   Integer Add/Sub FU's:            0
   Integer Mul/Div FU's:            0
   Integer Shifter FU's:            0
   Integer Bitwise FU's:            0
   Floating Point Float Add/Sub:    0
   Floating Point Double Add/Sub:   0
   Floating Point Float Mul/Div:    0
   Floating Point Double Mul/Div:   0
   0 Cycle Compare FU's:            0
   GEP Instruction FU's:            0
   Type Conversion FU's:            0
   Other:                           0

   ========= Pipeline Register Usage =============
   Total Number of Registers:       5641
   Max Register Usage Per Cycle:    135
   Avg Register Usage Per Cycle:    8.090288
   Avg Register Size (Bytes):       5.980606

   ========= Memory Configuration =================
   Cache Bus Ports:                 0
   Shared Cache Size:               0kB
   Local Bus Ports:                 0
   Private SPM Size:                256kB
   Private Read Ports:              0
   Private Write Ports:             0
   Private Read Bus Width:          64
   Private Write Bus Width:         64
       Memory Reads:                0
       Memory Writes:               0
   ========= Power Analysis ======================
   FU Leakage Power:                0.045377 mW 
   FU Dynamic Power:                0.293182 mW 
   FU Total Power:                  0.338559 mW 

   Registers Leakage Power:          0.003521 mW 
   Registers Dynamic Power:          0.015320 mW 
       Register Reads (Bits):        132616
       Register Writes (Bits):       133658
   Registers Total Power:            0.018841 mW

   SPM Leakage Power:               0.099590 mW
   SPM Read Dynamic Power:          1.510371 mW
   SPM Write Dynamic Power:         1.004807 mW
   SPM Total Power:                 2.614768 mW

   Cache Leakage Power:             0.000000 mW
   Cache Read Dynamic Power:        0.000000 mW
   Cache Write Dynamic Power:       0.000000 mW
   Cache Total Power:               0.000000 mW

   Accelerator Power:               0.357400 mW
   Accelerator Power (SPM):         2.972168 mW
   Accelerator Power (Cache):       0.357400 mW

   ========= Area Analysis =======================
   FU Area:                         5472.068359 um^2 (0.005472 mm^2)
   Register Area:                   286.180725 um^2 (0.000286 mm^2)
   SPM Area:                        1894.672457 um^2 (0.001895 mm^2)
   Cache Area:                      0.000000 um^2 (0.000000 mm^2)

   Accelerator Area:                5758.249023 um^2 (0.005758 mm^2)
   Accelerator Area (SPM):          7652.921481 um^2 (0.007653 mm^2)
   Accelerator Area (Cache):        5758.249023 um^2 (0.005758 mm^2)

   ========= SPM Resizing  =======================
   SPM Optimized Leakage Power:     0.003640 mW
   SPM Opt Area:                    97.220725 um^2

290743910625: system.acctest.elem_matrix0_dma: SRC:0x00000000854847e8, DST:0x0000000024000020, LEN:65536
290767020625: system.acctest.elem_matrix0_dma: Transfer completed in 23.11 us
********************************************************************************
system.acctest.elem_matrix0.compute
   ========= Performance Analysis =============
   Setup Time:                      5.690237seconds
   Simulation Time:                 49.879080seconds
   System Clock:                    1.000000GHz
   Transistor Latency:              1ns
   Runtime:                         16394 cycles
   Runtime:                         16.394000 us
   Stalls:                          1 cycles
   Executed Nodes:                  16392 cycles

********************************************************************************
   ========= Performance Analysis =================
   Setup Time:                      5690236532.000000ns
   Simulation Time:                 49879079505.000000ns
   System Clock:                    1.000000GHz
   Transistor Latency:              0ns
   Runtime:                         16394 cycles
   Runtime:                         0.000002 seconds
   Stalls:                          1 cycles
       Load Only:                   0 cycles
       Store Only:                  1 cycles
       Compute Only:                0 cycles
       Compute & Store:             0 cycles
       Load & Store:                0 cycles
       Load & Compute:              0 cycles
       Load & Compute & Store:      0 cycles
   Executed Nodes:                  16392 cycles
       Load Only:                   0 cycles
       Store Only:                  5 cycles
       Compute Only:                1 cycles
       Compute & Store:             32 cycles
       Load & Store:                0 cycles
       Load & Compute:              7 cycles
       Load & Compute & Store:      16347 cycles

   ========= Runtime FU's ========= (Max | Avg) ===
   Counter FU's:                      32 | 0.031233
   Integer Add/Sub FU's:               0 | 0.000000
   Integer Mul/Div FU's:               0 | 0.000000
   Integer Shifter FU's:               0 | 0.000000
   Integer Bitwise FU's:               1 | 0.000061
   Floating Point Float Add/Sub:       1 | 0.999390
   Floating Point Double Add/Sub:      0 | 0.000000
   Floating Point Float Mul/Div:       0 | 0.000000
   Floating Point Double Mul/Div:      0 | 0.000000
   0 Cycle Compare FU's:             101 | 0.031672
   GEP Instruction FU's:              96 | 0.031231
   Type Conversion FU's:               7 | 0.004523

   ========= Static FU's ==========================
   Counter FU's:                    0
   Integer Add/Sub FU's:            0
   Integer Mul/Div FU's:            0
   Integer Shifter FU's:            0
   Integer Bitwise FU's:            0
   Floating Point Float Add/Sub:    0
   Floating Point Double Add/Sub:   0
   Floating Point Float Mul/Div:    0
   Floating Point Double Mul/Div:   0
   0 Cycle Compare FU's:            0
   GEP Instruction FU's:            0
   Type Conversion FU's:            0
   Other:                           0

   ========= Pipeline Register Usage =============
   Total Number of Registers:       5641
   Max Register Usage Per Cycle:    135
   Avg Register Usage Per Cycle:    8.089301
   Avg Register Size (Bytes):       5.980606

   ========= Memory Configuration =================
   Cache Bus Ports:                 0
   Shared Cache Size:               0kB
   Local Bus Ports:                 0
   Private SPM Size:                256kB
   Private Read Ports:              0
   Private Write Ports:             0
   Private Read Bus Width:          64
   Private Write Bus Width:         64
       Memory Reads:                0
       Memory Writes:               0
   ========= Power Analysis ======================
   FU Leakage Power:                0.015866 mW 
   FU Dynamic Power:                0.231200 mW 
   FU Total Power:                  0.247066 mW 

   Registers Leakage Power:          0.003521 mW 
   Registers Dynamic Power:          0.015322 mW 
       Register Reads (Bits):        132616
       Register Writes (Bits):       133658
   Registers Total Power:            0.018843 mW

   SPM Leakage Power:               0.099590 mW
   SPM Read Dynamic Power:          2.004331 mW
   SPM Write Dynamic Power:         1.339804 mW
   SPM Total Power:                 3.443725 mW

   Cache Leakage Power:             0.000000 mW
   Cache Read Dynamic Power:        0.000000 mW
   Cache Write Dynamic Power:       0.000000 mW
   Cache Total Power:               0.000000 mW

   Accelerator Power:               0.265909 mW
   Accelerator Power (SPM):         3.709634 mW
   Accelerator Power (Cache):       0.265909 mW

   ========= Area Analysis =======================
   FU Area:                         2113.963867 um^2 (0.002114 mm^2)
   Register Area:                   286.180725 um^2 (0.000286 mm^2)
   SPM Area:                        1894.672457 um^2 (0.001895 mm^2)
   Cache Area:                      0.000000 um^2 (0.000000 mm^2)

   Accelerator Area:                2400.144531 um^2 (0.002400 mm^2)
   Accelerator Area (SPM):          4294.816988 um^2 (0.004295 mm^2)
   Accelerator Area (Cache):        2400.144531 um^2 (0.002400 mm^2)

   ========= SPM Resizing  =======================
   SPM Optimized Leakage Power:     0.003640 mW
   SPM Opt Area:                    97.220725 um^2

290796980625: system.acctest.elem_matrix1_dma: SRC:0x00000000854a47e8, DST:0x0000000024100020, LEN:65536
290820080625: system.acctest.elem_matrix1_dma: Transfer completed in 23.1 us
********************************************************************************
system.acctest.elem_matrix1.compute
   ========= Performance Analysis =============
   Setup Time:                      5.954619seconds
   Simulation Time:                 49.362908seconds
   System Clock:                    1.000000GHz
   Transistor Latency:              1ns
   Runtime:                         16394 cycles
   Runtime:                         16.394000 us
   Stalls:                          1 cycles
   Executed Nodes:                  16392 cycles

********************************************************************************
   ========= Performance Analysis =================
   Setup Time:                      5954618742.000000ns
   Simulation Time:                 49362908365.000000ns
   System Clock:                    1.000000GHz
   Transistor Latency:              0ns
   Runtime:                         16394 cycles
   Runtime:                         0.000002 seconds
   Stalls:                          1 cycles
       Load Only:                   0 cycles
       Store Only:                  1 cycles
       Compute Only:                0 cycles
       Compute & Store:             0 cycles
       Load & Store:                0 cycles
       Load & Compute:              0 cycles
       Load & Compute & Store:      0 cycles
   Executed Nodes:                  16392 cycles
       Load Only:                   0 cycles
       Store Only:                  5 cycles
       Compute Only:                1 cycles
       Compute & Store:             32 cycles
       Load & Store:                0 cycles
       Load & Compute:              7 cycles
       Load & Compute & Store:      16347 cycles

   ========= Runtime FU's ========= (Max | Avg) ===
   Counter FU's:                      32 | 0.031233
   Integer Add/Sub FU's:               0 | 0.000000
   Integer Mul/Div FU's:               0 | 0.000000
   Integer Shifter FU's:               0 | 0.000000
   Integer Bitwise FU's:               1 | 0.000061
   Floating Point Float Add/Sub:       1 | 0.999390
   Floating Point Double Add/Sub:      0 | 0.000000
   Floating Point Float Mul/Div:       0 | 0.000000
   Floating Point Double Mul/Div:      0 | 0.000000
   0 Cycle Compare FU's:             101 | 0.031672
   GEP Instruction FU's:              96 | 0.031231
   Type Conversion FU's:               7 | 0.004523

   ========= Static FU's ==========================
   Counter FU's:                    0
   Integer Add/Sub FU's:            0
   Integer Mul/Div FU's:            0
   Integer Shifter FU's:            0
   Integer Bitwise FU's:            0
   Floating Point Float Add/Sub:    0
   Floating Point Double Add/Sub:   0
   Floating Point Float Mul/Div:    0
   Floating Point Double Mul/Div:   0
   0 Cycle Compare FU's:            0
   GEP Instruction FU's:            0
   Type Conversion FU's:            0
   Other:                           0

   ========= Pipeline Register Usage =============
   Total Number of Registers:       5641
   Max Register Usage Per Cycle:    135
   Avg Register Usage Per Cycle:    8.089301
   Avg Register Size (Bytes):       5.980606

   ========= Memory Configuration =================
   Cache Bus Ports:                 0
   Shared Cache Size:               0kB
   Local Bus Ports:                 0
   Private SPM Size:                256kB
   Private Read Ports:              0
   Private Write Ports:             0
   Private Read Bus Width:          64
   Private Write Bus Width:         64
       Memory Reads:                0
       Memory Writes:               0
   ========= Power Analysis ======================
   FU Leakage Power:                0.015866 mW 
   FU Dynamic Power:                0.231200 mW 
   FU Total Power:                  0.247066 mW 

   Registers Leakage Power:          0.003521 mW 
   Registers Dynamic Power:          0.015322 mW 
       Register Reads (Bits):        132616
       Register Writes (Bits):       133658
   Registers Total Power:            0.018843 mW

   SPM Leakage Power:               0.099590 mW
   SPM Read Dynamic Power:          2.004331 mW
   SPM Write Dynamic Power:         1.339804 mW
   SPM Total Power:                 3.443725 mW

   Cache Leakage Power:             0.000000 mW
   Cache Read Dynamic Power:        0.000000 mW
   Cache Write Dynamic Power:       0.000000 mW
   Cache Total Power:               0.000000 mW

   Accelerator Power:               0.265909 mW
   Accelerator Power (SPM):         3.709634 mW
   Accelerator Power (Cache):       0.265909 mW

   ========= Area Analysis =======================
   FU Area:                         2113.963867 um^2 (0.002114 mm^2)
   Register Area:                   286.180725 um^2 (0.000286 mm^2)
   SPM Area:                        1894.672457 um^2 (0.001895 mm^2)
   Cache Area:                      0.000000 um^2 (0.000000 mm^2)

   Accelerator Area:                2400.144531 um^2 (0.002400 mm^2)
   Accelerator Area (SPM):          4294.816988 um^2 (0.004295 mm^2)
   Accelerator Area (Cache):        2400.144531 um^2 (0.002400 mm^2)

   ========= SPM Resizing  =======================
   SPM Optimized Leakage Power:     0.003640 mW
   SPM Opt Area:                    97.220725 um^2

********************************************************************************
system.acctest.elem_matrix0.compute
   ========= Performance Analysis =============
   Setup Time:                      5.807523seconds
   Simulation Time:                 51.910957seconds
   System Clock:                    1.000000GHz
   Transistor Latency:              1ns
   Runtime:                         12316 cycles
   Runtime:                         12.316000 us
   Stalls:                          4072 cycles
   Executed Nodes:                  8243 cycles

********************************************************************************
   ========= Performance Analysis =================
   Setup Time:                      5807523034.000000ns
   Simulation Time:                 51910956938.000000ns
   System Clock:                    1.000000GHz
   Transistor Latency:              0ns
   Runtime:                         12316 cycles
   Runtime:                         0.000001 seconds
   Stalls:                          4072 cycles
       Load Only:                   0 cycles
       Store Only:                  4072 cycles
       Compute Only:                0 cycles
       Compute & Store:             0 cycles
       Load & Store:                0 cycles
       Load & Compute:              0 cycles
       Load & Compute & Store:      0 cycles
   Executed Nodes:                  8243 cycles
       Load Only:                   0 cycles
       Store Only:                  16 cycles
       Compute Only:                1 cycles
       Compute & Store:             48 cycles
       Load & Store:                0 cycles
       Load & Compute:              50 cycles
       Load & Compute & Store:      8128 cycles

   ========= Runtime FU's ========= (Max | Avg) ===
   Counter FU's:                      32 | 0.041574
   Integer Add/Sub FU's:               0 | 0.000000
   Integer Mul/Div FU's:               0 | 0.000000
   Integer Shifter FU's:               0 | 0.000000
   Integer Bitwise FU's:               1 | 0.000081
   Floating Point Float Add/Sub:      66 | 0.191801
   Floating Point Double Add/Sub:      0 | 0.000000
   Floating Point Float Mul/Div:      34 | 0.039279
   Floating Point Double Mul/Div:      0 | 0.000000
   0 Cycle Compare FU's:              15 | 0.016764
   GEP Instruction FU's:              64 | 0.041572
   Type Conversion FU's:              55 | 0.097954

   ========= Static FU's ==========================
   Counter FU's:                    0
   Integer Add/Sub FU's:            0
   Integer Mul/Div FU's:            0
   Integer Shifter FU's:            0
   Integer Bitwise FU's:            0
   Floating Point Float Add/Sub:    0
   Floating Point Double Add/Sub:   0
   Floating Point Float Mul/Div:    0
   Floating Point Double Mul/Div:   0
   0 Cycle Compare FU's:            0
   GEP Instruction FU's:            0
   Type Conversion FU's:            0
   Other:                           0

   ========= Pipeline Register Usage =============
   Total Number of Registers:       5641
   Max Register Usage Per Cycle:    115
   Avg Register Usage Per Cycle:    18.708022
   Avg Register Size (Bytes):       5.993295

   ========= Memory Configuration =================
   Cache Bus Ports:                 0
   Shared Cache Size:               0kB
   Local Bus Ports:                 0
   Private SPM Size:                256kB
   Private Read Ports:              0
   Private Write Ports:             0
   Private Read Bus Width:          64
   Private Write Bus Width:         64
       Memory Reads:                0
       Memory Writes:               0
   ========= Power Analysis ======================
   FU Leakage Power:                1.052184 mW 
   FU Dynamic Power:                1.390106 mW 
   FU Total Power:                  2.442290 mW 

   Registers Leakage Power:          0.007939 mW 
   Registers Dynamic Power:          0.045067 mW 
       Register Reads (Bits):        230408
       Register Writes (Bits):       231961
   Registers Total Power:            0.053006 mW

   SPM Leakage Power:               0.099590 mW
   SPM Read Dynamic Power:          2.167863 mW
   SPM Write Dynamic Power:         1.590245 mW
   SPM Total Power:                 3.857697 mW

   Cache Leakage Power:             0.000000 mW
   Cache Read Dynamic Power:        0.000000 mW
   Cache Write Dynamic Power:       0.000000 mW
   Cache Total Power:               0.000000 mW

   Accelerator Power:               2.495296 mW
   Accelerator Power (SPM):         6.352993 mW
   Accelerator Power (Cache):       2.495296 mW

   ========= Area Analysis =======================
   FU Area:                         141669.281250 um^2 (0.141669 mm^2)
   Register Area:                   645.272827 um^2 (0.000645 mm^2)
   SPM Area:                        1894.672457 um^2 (0.001895 mm^2)
   Cache Area:                      0.000000 um^2 (0.000000 mm^2)

   Accelerator Area:                142314.546875 um^2 (0.142315 mm^2)
   Accelerator Area (SPM):          144209.219332 um^2 (0.144209 mm^2)
   Accelerator Area (Cache):        142314.546875 um^2 (0.142315 mm^2)

   ========= SPM Resizing  =======================
   SPM Optimized Leakage Power:     0.003117 mW
   SPM Opt Area:                    91.617373 um^2

********************************************************************************
system.acctest.elem_matrix1.compute
   ========= Performance Analysis =============
   Setup Time:                      5.841888seconds
   Simulation Time:                 57.765275seconds
   System Clock:                    1.000000GHz
   Transistor Latency:              1ns
   Runtime:                         12316 cycles
   Runtime:                         12.316000 us
   Stalls:                          4072 cycles
   Executed Nodes:                  8243 cycles

********************************************************************************
   ========= Performance Analysis =================
   Setup Time:                      5841887760.000000ns
   Simulation Time:                 57765275395.000000ns
   System Clock:                    1.000000GHz
   Transistor Latency:              0ns
   Runtime:                         12316 cycles
   Runtime:                         0.000001 seconds
   Stalls:                          4072 cycles
       Load Only:                   0 cycles
       Store Only:                  4072 cycles
       Compute Only:                0 cycles
       Compute & Store:             0 cycles
       Load & Store:                0 cycles
       Load & Compute:              0 cycles
       Load & Compute & Store:      0 cycles
   Executed Nodes:                  8243 cycles
       Load Only:                   0 cycles
       Store Only:                  16 cycles
       Compute Only:                1 cycles
       Compute & Store:             48 cycles
       Load & Store:                0 cycles
       Load & Compute:              50 cycles
       Load & Compute & Store:      8128 cycles

   ========= Runtime FU's ========= (Max | Avg) ===
   Counter FU's:                      32 | 0.041574
   Integer Add/Sub FU's:               0 | 0.000000
   Integer Mul/Div FU's:               0 | 0.000000
   Integer Shifter FU's:               0 | 0.000000
   Integer Bitwise FU's:               1 | 0.000081
   Floating Point Float Add/Sub:      66 | 0.191801
   Floating Point Double Add/Sub:      0 | 0.000000
   Floating Point Float Mul/Div:      34 | 0.039279
   Floating Point Double Mul/Div:      0 | 0.000000
   0 Cycle Compare FU's:              15 | 0.016764
   GEP Instruction FU's:              64 | 0.041572
   Type Conversion FU's:              55 | 0.097954

   ========= Static FU's ==========================
   Counter FU's:                    0
   Integer Add/Sub FU's:            0
   Integer Mul/Div FU's:            0
   Integer Shifter FU's:            0
   Integer Bitwise FU's:            0
   Floating Point Float Add/Sub:    0
   Floating Point Double Add/Sub:   0
   Floating Point Float Mul/Div:    0
   Floating Point Double Mul/Div:   0
   0 Cycle Compare FU's:            0
   GEP Instruction FU's:            0
   Type Conversion FU's:            0
   Other:                           0

   ========= Pipeline Register Usage =============
   Total Number of Registers:       5641
   Max Register Usage Per Cycle:    115
   Avg Register Usage Per Cycle:    18.708022
   Avg Register Size (Bytes):       5.993295

   ========= Memory Configuration =================
   Cache Bus Ports:                 0
   Shared Cache Size:               0kB
   Local Bus Ports:                 0
   Private SPM Size:                256kB
   Private Read Ports:              0
   Private Write Ports:             0
   Private Read Bus Width:          64
   Private Write Bus Width:         64
       Memory Reads:                0
       Memory Writes:               0
   ========= Power Analysis ======================
   FU Leakage Power:                1.052184 mW 
   FU Dynamic Power:                1.390106 mW 
   FU Total Power:                  2.442290 mW 

   Registers Leakage Power:          0.007939 mW 
   Registers Dynamic Power:          0.045067 mW 
       Register Reads (Bits):        230408
       Register Writes (Bits):       231961
   Registers Total Power:            0.053006 mW

   SPM Leakage Power:               0.099590 mW
   SPM Read Dynamic Power:          2.167863 mW
   SPM Write Dynamic Power:         1.590245 mW
   SPM Total Power:                 3.857697 mW

   Cache Leakage Power:             0.000000 mW
   Cache Read Dynamic Power:        0.000000 mW
   Cache Write Dynamic Power:       0.000000 mW
   Cache Total Power:               0.000000 mW

   Accelerator Power:               2.495296 mW
   Accelerator Power (SPM):         6.352993 mW
   Accelerator Power (Cache):       2.495296 mW

   ========= Area Analysis =======================
   FU Area:                         141669.281250 um^2 (0.141669 mm^2)
   Register Area:                   645.272827 um^2 (0.000645 mm^2)
   SPM Area:                        1894.672457 um^2 (0.001895 mm^2)
   Cache Area:                      0.000000 um^2 (0.000000 mm^2)

   Accelerator Area:                142314.546875 um^2 (0.142315 mm^2)
   Accelerator Area (SPM):          144209.219332 um^2 (0.144209 mm^2)
   Accelerator Area (Cache):        142314.546875 um^2 (0.142315 mm^2)

   ========= SPM Resizing  =======================
   SPM Optimized Leakage Power:     0.003117 mW
   SPM Opt Area:                    91.617373 um^2

290895684875: system.acctest.elem_matrix0_dma: SRC:0x0000000087af4a28, DST:0x0000000024010020, LEN:65536
290918934875: system.acctest.elem_matrix0_dma: Transfer completed in 23.25 us
********************************************************************************
system.acctest.elem_matrix0.compute
   ========= Performance Analysis =============
   Setup Time:                      6.041009seconds
   Simulation Time:                 76.348617seconds
   System Clock:                    1.000000GHz
   Transistor Latency:              1ns
   Runtime:                         16392 cycles
   Runtime:                         16.392000 us
   Stalls:                          0 cycles
   Executed Nodes:                  16391 cycles

********************************************************************************
   ========= Performance Analysis =================
   Setup Time:                      6041008580.000000ns
   Simulation Time:                 76348616874.000000ns
   System Clock:                    1.000000GHz
   Transistor Latency:              0ns
   Runtime:                         16392 cycles
   Runtime:                         0.000002 seconds
   Stalls:                          0 cycles
       Load Only:                   0 cycles
       Store Only:                  0 cycles
       Compute Only:                0 cycles
       Compute & Store:             0 cycles
       Load & Store:                0 cycles
       Load & Compute:              0 cycles
       Load & Compute & Store:      0 cycles
   Executed Nodes:                  16391 cycles
       Load Only:                   0 cycles
       Store Only:                  4 cycles
       Compute Only:                1 cycles
       Compute & Store:             32 cycles
       Load & Store:                0 cycles
       Load & Compute:              6 cycles
       Load & Compute & Store:      16348 cycles

   ========= Runtime FU's ========= (Max | Avg) ===
   Counter FU's:                      32 | 0.031237
   Integer Add/Sub FU's:               0 | 0.000000
   Integer Mul/Div FU's:               0 | 0.000000
   Integer Shifter FU's:               0 | 0.000000
   Integer Bitwise FU's:               1 | 0.000061
   Floating Point Float Add/Sub:       0 | 0.000000
   Floating Point Double Add/Sub:      0 | 0.000000
   Floating Point Float Mul/Div:       1 | 0.999512
   Floating Point Double Mul/Div:      0 | 0.000000
   0 Cycle Compare FU's:             101 | 0.031657
   GEP Instruction FU's:              96 | 0.031235
   Type Conversion FU's:               7 | 0.004523

   ========= Static FU's ==========================
   Counter FU's:                    0
   Integer Add/Sub FU's:            0
   Integer Mul/Div FU's:            0
   Integer Shifter FU's:            0
   Integer Bitwise FU's:            0
   Floating Point Float Add/Sub:    0
   Floating Point Double Add/Sub:   0
   Floating Point Float Mul/Div:    0
   Floating Point Double Mul/Div:   0
   0 Cycle Compare FU's:            0
   GEP Instruction FU's:            0
   Type Conversion FU's:            0
   Other:                           0

   ========= Pipeline Register Usage =============
   Total Number of Registers:       5641
   Max Register Usage Per Cycle:    135
   Avg Register Usage Per Cycle:    8.090288
   Avg Register Size (Bytes):       5.980606

   ========= Memory Configuration =================
   Cache Bus Ports:                 0
   Shared Cache Size:               0kB
   Local Bus Ports:                 0
   Private SPM Size:                256kB
   Private Read Ports:              0
   Private Write Ports:             0
   Private Read Bus Width:          64
   Private Write Bus Width:         64
       Memory Reads:                0
       Memory Writes:               0
   ========= Power Analysis ======================
   FU Leakage Power:                0.045377 mW 
   FU Dynamic Power:                0.293182 mW 
   FU Total Power:                  0.338559 mW 

   Registers Leakage Power:          0.003521 mW 
   Registers Dynamic Power:          0.015320 mW 
       Register Reads (Bits):        132616
       Register Writes (Bits):       133658
   Registers Total Power:            0.018841 mW

   SPM Leakage Power:               0.099590 mW
   SPM Read Dynamic Power:          2.519734 mW
   SPM Write Dynamic Power:         1.839340 mW
   SPM Total Power:                 4.458663 mW

   Cache Leakage Power:             0.000000 mW
   Cache Read Dynamic Power:        0.000000 mW
   Cache Write Dynamic Power:       0.000000 mW
   Cache Total Power:               0.000000 mW

   Accelerator Power:               0.357400 mW
   Accelerator Power (SPM):         4.816064 mW
   Accelerator Power (Cache):       0.357400 mW

   ========= Area Analysis =======================
   FU Area:                         5472.068359 um^2 (0.005472 mm^2)
   Register Area:                   286.180725 um^2 (0.000286 mm^2)
   SPM Area:                        1894.672457 um^2 (0.001895 mm^2)
   Cache Area:                      0.000000 um^2 (0.000000 mm^2)

   Accelerator Area:                5758.249023 um^2 (0.005758 mm^2)
   Accelerator Area (SPM):          7652.921481 um^2 (0.007653 mm^2)
   Accelerator Area (Cache):        5758.249023 um^2 (0.005758 mm^2)

   ========= SPM Resizing  =======================
   SPM Optimized Leakage Power:     0.003640 mW
   SPM Opt Area:                    97.220725 um^2

290970096375: system.acctest.elem_matrix2_dma: SRC:0x0000000024220020, DST:0x0000000086804870, LEN:65536
290981966375: system.acctest.elem_matrix2_dma: Transfer completed in 11.87 us
290998124875: system.acctest.elem_matrix2_dma: SRC:0x0000000024020020, DST:0x0000000024200020, LEN:65536
291008374875: system.acctest.elem_matrix2_dma: Transfer completed in 10.25 us
291013927125: system.acctest.elem_matrix2_dma: SRC:0x00000000854b47e8, DST:0x0000000024210020, LEN:65536
291037157125: system.acctest.elem_matrix2_dma: Transfer completed in 23.23 us
********************************************************************************
system.acctest.elem_matrix2.compute
   ========= Performance Analysis =============
   Setup Time:                      6.464458seconds
   Simulation Time:                 59.642873seconds
   System Clock:                    1.000000GHz
   Transistor Latency:              1ns
   Runtime:                         16392 cycles
   Runtime:                         16.392000 us
   Stalls:                          0 cycles
   Executed Nodes:                  16391 cycles

********************************************************************************
   ========= Performance Analysis =================
   Setup Time:                      6464457991.000000ns
   Simulation Time:                 59642873127.000000ns
   System Clock:                    1.000000GHz
   Transistor Latency:              0ns
   Runtime:                         16392 cycles
   Runtime:                         0.000002 seconds
   Stalls:                          0 cycles
       Load Only:                   0 cycles
       Store Only:                  0 cycles
       Compute Only:                0 cycles
       Compute & Store:             0 cycles
       Load & Store:                0 cycles
       Load & Compute:              0 cycles
       Load & Compute & Store:      0 cycles
   Executed Nodes:                  16391 cycles
       Load Only:                   0 cycles
       Store Only:                  4 cycles
       Compute Only:                1 cycles
       Compute & Store:             32 cycles
       Load & Store:                0 cycles
       Load & Compute:              6 cycles
       Load & Compute & Store:      16348 cycles

   ========= Runtime FU's ========= (Max | Avg) ===
   Counter FU's:                      32 | 0.031237
   Integer Add/Sub FU's:               0 | 0.000000
   Integer Mul/Div FU's:               0 | 0.000000
   Integer Shifter FU's:               0 | 0.000000
   Integer Bitwise FU's:               1 | 0.000061
   Floating Point Float Add/Sub:       0 | 0.000000
   Floating Point Double Add/Sub:      0 | 0.000000
   Floating Point Float Mul/Div:       1 | 0.999512
   Floating Point Double Mul/Div:      0 | 0.000000
   0 Cycle Compare FU's:             101 | 0.031657
   GEP Instruction FU's:              96 | 0.031235
   Type Conversion FU's:               7 | 0.004523

   ========= Static FU's ==========================
   Counter FU's:                    0
   Integer Add/Sub FU's:            0
   Integer Mul/Div FU's:            0
   Integer Shifter FU's:            0
   Integer Bitwise FU's:            0
   Floating Point Float Add/Sub:    0
   Floating Point Double Add/Sub:   0
   Floating Point Float Mul/Div:    0
   Floating Point Double Mul/Div:   0
   0 Cycle Compare FU's:            0
   GEP Instruction FU's:            0
   Type Conversion FU's:            0
   Other:                           0

   ========= Pipeline Register Usage =============
   Total Number of Registers:       5641
   Max Register Usage Per Cycle:    135
   Avg Register Usage Per Cycle:    8.090288
   Avg Register Size (Bytes):       5.980606

   ========= Memory Configuration =================
   Cache Bus Ports:                 0
   Shared Cache Size:               0kB
   Local Bus Ports:                 0
   Private SPM Size:                256kB
   Private Read Ports:              0
   Private Write Ports:             0
   Private Read Bus Width:          64
   Private Write Bus Width:         64
       Memory Reads:                0
       Memory Writes:               0
   ========= Power Analysis ======================
   FU Leakage Power:                0.045377 mW 
   FU Dynamic Power:                0.293182 mW 
   FU Total Power:                  0.338559 mW 

   Registers Leakage Power:          0.003521 mW 
   Registers Dynamic Power:          0.015320 mW 
       Register Reads (Bits):        132616
       Register Writes (Bits):       133658
   Registers Total Power:            0.018841 mW

   SPM Leakage Power:               0.099590 mW
   SPM Read Dynamic Power:          1.510371 mW
   SPM Write Dynamic Power:         1.004807 mW
   SPM Total Power:                 2.614768 mW

   Cache Leakage Power:             0.000000 mW
   Cache Read Dynamic Power:        0.000000 mW
   Cache Write Dynamic Power:       0.000000 mW
   Cache Total Power:               0.000000 mW

   Accelerator Power:               0.357400 mW
   Accelerator Power (SPM):         2.972168 mW
   Accelerator Power (Cache):       0.357400 mW

   ========= Area Analysis =======================
   FU Area:                         5472.068359 um^2 (0.005472 mm^2)
   Register Area:                   286.180725 um^2 (0.000286 mm^2)
   SPM Area:                        1894.672457 um^2 (0.001895 mm^2)
   Cache Area:                      0.000000 um^2 (0.000000 mm^2)

   Accelerator Area:                5758.249023 um^2 (0.005758 mm^2)
   Accelerator Area (SPM):          7652.921481 um^2 (0.007653 mm^2)
   Accelerator Area (Cache):        5758.249023 um^2 (0.005758 mm^2)

   ========= SPM Resizing  =======================
   SPM Optimized Leakage Power:     0.003640 mW
   SPM Opt Area:                    97.220725 um^2

291059831375: system.acctest.elem_matrix3_dma: SRC:0x0000000024320020, DST:0x00000000871848b0, LEN:65536
291071581375: system.acctest.elem_matrix3_dma: Transfer completed in 11.75 us
291088233500: system.acctest.elem_matrix3_dma: SRC:0x0000000024120020, DST:0x0000000024300020, LEN:65536
291098483500: system.acctest.elem_matrix3_dma: Transfer completed in 10.25 us
291104005625: system.acctest.elem_matrix3_dma: SRC:0x00000000854747e8, DST:0x0000000024310020, LEN:65536
291127055625: system.acctest.elem_matrix3_dma: Transfer completed in 23.05 us
********************************************************************************
system.acctest.elem_matrix3.compute
   ========= Performance Analysis =============
   Setup Time:                      6.417009seconds
   Simulation Time:                 49.663950seconds
   System Clock:                    1.000000GHz
   Transistor Latency:              1ns
   Runtime:                         16392 cycles
   Runtime:                         16.392000 us
   Stalls:                          0 cycles
   Executed Nodes:                  16391 cycles

********************************************************************************
   ========= Performance Analysis =================
   Setup Time:                      6417008669.000000ns
   Simulation Time:                 49663950006.000000ns
   System Clock:                    1.000000GHz
   Transistor Latency:              0ns
   Runtime:                         16392 cycles
   Runtime:                         0.000002 seconds
   Stalls:                          0 cycles
       Load Only:                   0 cycles
       Store Only:                  0 cycles
       Compute Only:                0 cycles
       Compute & Store:             0 cycles
       Load & Store:                0 cycles
       Load & Compute:              0 cycles
       Load & Compute & Store:      0 cycles
   Executed Nodes:                  16391 cycles
       Load Only:                   0 cycles
       Store Only:                  4 cycles
       Compute Only:                1 cycles
       Compute & Store:             32 cycles
       Load & Store:                0 cycles
       Load & Compute:              6 cycles
       Load & Compute & Store:      16348 cycles

   ========= Runtime FU's ========= (Max | Avg) ===
   Counter FU's:                      32 | 0.031237
   Integer Add/Sub FU's:               0 | 0.000000
   Integer Mul/Div FU's:               0 | 0.000000
   Integer Shifter FU's:               0 | 0.000000
   Integer Bitwise FU's:               1 | 0.000061
   Floating Point Float Add/Sub:       0 | 0.000000
   Floating Point Double Add/Sub:      0 | 0.000000
   Floating Point Float Mul/Div:       1 | 0.999512
   Floating Point Double Mul/Div:      0 | 0.000000
   0 Cycle Compare FU's:             101 | 0.031657
   GEP Instruction FU's:              96 | 0.031235
   Type Conversion FU's:               7 | 0.004523

   ========= Static FU's ==========================
   Counter FU's:                    0
   Integer Add/Sub FU's:            0
   Integer Mul/Div FU's:            0
   Integer Shifter FU's:            0
   Integer Bitwise FU's:            0
   Floating Point Float Add/Sub:    0
   Floating Point Double Add/Sub:   0
   Floating Point Float Mul/Div:    0
   Floating Point Double Mul/Div:   0
   0 Cycle Compare FU's:            0
   GEP Instruction FU's:            0
   Type Conversion FU's:            0
   Other:                           0

   ========= Pipeline Register Usage =============
   Total Number of Registers:       5641
   Max Register Usage Per Cycle:    135
   Avg Register Usage Per Cycle:    8.090288
   Avg Register Size (Bytes):       5.980606

   ========= Memory Configuration =================
   Cache Bus Ports:                 0
   Shared Cache Size:               0kB
   Local Bus Ports:                 0
   Private SPM Size:                256kB
   Private Read Ports:              0
   Private Write Ports:             0
   Private Read Bus Width:          64
   Private Write Bus Width:         64
       Memory Reads:                0
       Memory Writes:               0
   ========= Power Analysis ======================
   FU Leakage Power:                0.045377 mW 
   FU Dynamic Power:                0.293182 mW 
   FU Total Power:                  0.338559 mW 

   Registers Leakage Power:          0.003521 mW 
   Registers Dynamic Power:          0.015320 mW 
       Register Reads (Bits):        132616
       Register Writes (Bits):       133658
   Registers Total Power:            0.018841 mW

   SPM Leakage Power:               0.099590 mW
   SPM Read Dynamic Power:          1.510371 mW
   SPM Write Dynamic Power:         1.004807 mW
   SPM Total Power:                 2.614768 mW

   Cache Leakage Power:             0.000000 mW
   Cache Read Dynamic Power:        0.000000 mW
   Cache Write Dynamic Power:       0.000000 mW
   Cache Total Power:               0.000000 mW

   Accelerator Power:               0.357400 mW
   Accelerator Power (SPM):         2.972168 mW
   Accelerator Power (Cache):       0.357400 mW

   ========= Area Analysis =======================
   FU Area:                         5472.068359 um^2 (0.005472 mm^2)
   Register Area:                   286.180725 um^2 (0.000286 mm^2)
   SPM Area:                        1894.672457 um^2 (0.001895 mm^2)
   Cache Area:                      0.000000 um^2 (0.000000 mm^2)

   Accelerator Area:                5758.249023 um^2 (0.005758 mm^2)
   Accelerator Area (SPM):          7652.921481 um^2 (0.007653 mm^2)
   Accelerator Area (Cache):        5758.249023 um^2 (0.005758 mm^2)

   ========= SPM Resizing  =======================
   SPM Optimized Leakage Power:     0.003640 mW
   SPM Opt Area:                    97.220725 um^2

291157090625: system.acctest.elem_matrix2_dma: SRC:0x00000000854c47e8, DST:0x0000000024200020, LEN:65536
291180270625: system.acctest.elem_matrix2_dma: Transfer completed in 23.18 us
********************************************************************************
system.acctest.elem_matrix2.compute
   ========= Performance Analysis =============
   Setup Time:                      6.249396seconds
   Simulation Time:                 50.763429seconds
   System Clock:                    1.000000GHz
   Transistor Latency:              1ns
   Runtime:                         16394 cycles
   Runtime:                         16.394000 us
   Stalls:                          1 cycles
   Executed Nodes:                  16392 cycles

********************************************************************************
   ========= Performance Analysis =================
   Setup Time:                      6249396104.000000ns
   Simulation Time:                 50763429369.000000ns
   System Clock:                    1.000000GHz
   Transistor Latency:              0ns
[...]
   GEP Instruction FU's:               4 | 0.132683
   Type Conversion FU's:               7 | 0.186618

   ========= Static FU's ==========================
   Counter FU's:                    0
   Integer Add/Sub FU's:            0
   Integer Mul/Div FU's:            0
   Integer Shifter FU's:            0
   Integer Bitwise FU's:            0
   Floating Point Float Add/Sub:    0
   Floating Point Double Add/Sub:   0
   Floating Point Float Mul/Div:    0
   Floating Point Double Mul/Div:   0
   0 Cycle Compare FU's:            0
   GEP Instruction FU's:            0
   Type Conversion FU's:            0
   Other:                           0

   ========= Pipeline Register Usage =============
   Total Number of Registers:       1702
   Max Register Usage Per Cycle:    21
   Avg Register Usage Per Cycle:    6.348199
   Avg Register Size (Bytes):       5.569148

   ========= Memory Configuration =================
   Cache Bus Ports:                 0
   Shared Cache Size:               0kB
   Local Bus Ports:                 0
   Private SPM Size:                192kB
   Private Read Ports:              0
   Private Write Ports:             0
   Private Read Bus Width:          64
   Private Write Bus Width:         64
       Memory Reads:                0
       Memory Writes:               0
   ========= Power Analysis ======================
   FU Leakage Power:                0.196912 mW 
   FU Dynamic Power:                2743.291016 mW 
   FU Total Power:                  2743.488037 mW 

   Registers Leakage Power:          0.002459 mW 
   Registers Dynamic Power:          75.251152 mW 
       Register Reads (Bits):        9811808
       Register Writes (Bits):       10049727
   Registers Total Power:            75.253609 mW

   SPM Leakage Power:               0.068560 mW
   SPM Read Dynamic Power:          27.043978 mW
   SPM Write Dynamic Power:         4.537772 mW
   SPM Total Power:                 31.650310 mW

   Cache Leakage Power:             0.000000 mW
   Cache Read Dynamic Power:        0.000000 mW
   Cache Write Dynamic Power:       0.000000 mW
   Cache Total Power:               0.000000 mW

   Accelerator Power:               2818.741699 mW
   Accelerator Power (SPM):         2850.392010 mW
   Accelerator Power (Cache):       2818.741699 mW

   ========= Area Analysis =======================
   FU Area:                         22931.867188 um^2 (0.022932 mm^2)
   Register Area:                   199.868912 um^2 (0.000200 mm^2)
   SPM Area:                        1013.937795 um^2 (0.001014 mm^2)
   Cache Area:                      0.000000 um^2 (0.000000 mm^2)

   Accelerator Area:                23131.736328 um^2 (0.023132 mm^2)
   Accelerator Area (SPM):          24145.674123 um^2 (0.024146 mm^2)
   Accelerator Area (Cache):        23131.736328 um^2 (0.023132 mm^2)

   ========= SPM Resizing  =======================
   SPM Optimized Leakage Power:     0.001770 mW
   SPM Opt Area:                    77.453784 um^2

356360369875: system.acctest.elem_matrix1_dma: SRC:0x0000000085442a20, DST:0x0000000024100020, LEN:65536
356375659875: system.acctest.elem_matrix1_dma: Transfer completed in 15.29 us
356381212125: system.acctest.elem_matrix1_dma: SRC:0x0000000022120020, DST:0x0000000024110020, LEN:65536
356391462125: system.acctest.elem_matrix1_dma: Transfer completed in 10.25 us
********************************************************************************
system.acctest.elem_matrix1.compute
   ========= Performance Analysis =============
   Setup Time:                      3.232080seconds
   Simulation Time:                 50.309108seconds
   System Clock:                    1.000000GHz
   Transistor Latency:              1ns
   Runtime:                         16392 cycles
   Runtime:                         16.392000 us
   Stalls:                          0 cycles
   Executed Nodes:                  16391 cycles

********************************************************************************
   ========= Performance Analysis =================
   Setup Time:                      3232079708.000000ns
   Simulation Time:                 50309107799.000000ns
   System Clock:                    1.000000GHz
   Transistor Latency:              0ns
   Runtime:                         16392 cycles
   Runtime:                         0.000002 seconds
   Stalls:                          0 cycles
       Load Only:                   0 cycles
       Store Only:                  0 cycles
       Compute Only:                0 cycles
       Compute & Store:             0 cycles
       Load & Store:                0 cycles
       Load & Compute:              0 cycles
       Load & Compute & Store:      0 cycles
   Executed Nodes:                  16391 cycles
       Load Only:                   0 cycles
       Store Only:                  4 cycles
       Compute Only:                1 cycles
       Compute & Store:             32 cycles
       Load & Store:                0 cycles
       Load & Compute:              6 cycles
       Load & Compute & Store:      16348 cycles

   ========= Runtime FU's ========= (Max | Avg) ===
   Counter FU's:                      32 | 0.031237
   Integer Add/Sub FU's:               0 | 0.000000
   Integer Mul/Div FU's:               0 | 0.000000
   Integer Shifter FU's:               0 | 0.000000
   Integer Bitwise FU's:               1 | 0.000061
   Floating Point Float Add/Sub:       0 | 0.000000
   Floating Point Double Add/Sub:      0 | 0.000000
   Floating Point Float Mul/Div:       1 | 0.999512
   Floating Point Double Mul/Div:      0 | 0.000000
   0 Cycle Compare FU's:             101 | 0.031657
   GEP Instruction FU's:              96 | 0.031235
   Type Conversion FU's:               7 | 0.004523

   ========= Static FU's ==========================
   Counter FU's:                    0
   Integer Add/Sub FU's:            0
   Integer Mul/Div FU's:            0
   Integer Shifter FU's:            0
   Integer Bitwise FU's:            0
   Floating Point Float Add/Sub:    0
   Floating Point Double Add/Sub:   0
   Floating Point Float Mul/Div:    0
   Floating Point Double Mul/Div:   0
   0 Cycle Compare FU's:            0
   GEP Instruction FU's:            0
   Type Conversion FU's:            0
   Other:                           0

   ========= Pipeline Register Usage =============
   Total Number of Registers:       5641
   Max Register Usage Per Cycle:    135
   Avg Register Usage Per Cycle:    8.090288
   Avg Register Size (Bytes):       5.980606

   ========= Memory Configuration =================
   Cache Bus Ports:                 0
   Shared Cache Size:               0kB
   Local Bus Ports:                 0
   Private SPM Size:                256kB
   Private Read Ports:              0
   Private Write Ports:             0
   Private Read Bus Width:          64
   Private Write Bus Width:         64
       Memory Reads:                0
       Memory Writes:               0
   ========= Power Analysis ======================
   FU Leakage Power:                0.045377 mW 
   FU Dynamic Power:                0.293182 mW 
   FU Total Power:                  0.338559 mW 

   Registers Leakage Power:          0.003521 mW 
   Registers Dynamic Power:          0.015320 mW 
       Register Reads (Bits):        132616
       Register Writes (Bits):       133658
   Registers Total Power:            0.018841 mW

   SPM Leakage Power:               0.099590 mW
   SPM Read Dynamic Power:          13.867637 mW
   SPM Write Dynamic Power:         10.809998 mW
   SPM Total Power:                 24.777225 mW

   Cache Leakage Power:             0.000000 mW
   Cache Read Dynamic Power:        0.000000 mW
   Cache Write Dynamic Power:       0.000000 mW
   Cache Total Power:               0.000000 mW

   Accelerator Power:               0.357400 mW
   Accelerator Power (SPM):         25.134625 mW
   Accelerator Power (Cache):       0.357400 mW

   ========= Area Analysis =======================
   FU Area:                         5472.068359 um^2 (0.005472 mm^2)
   Register Area:                   286.180725 um^2 (0.000286 mm^2)
   SPM Area:                        1894.672457 um^2 (0.001895 mm^2)
   Cache Area:                      0.000000 um^2 (0.000000 mm^2)

   Accelerator Area:                5758.249023 um^2 (0.005758 mm^2)
   Accelerator Area (SPM):          7652.921481 um^2 (0.007653 mm^2)
   Accelerator Area (Cache):        5758.249023 um^2 (0.005758 mm^2)

   ========= SPM Resizing  =======================
   SPM Optimized Leakage Power:     0.003640 mW
   SPM Opt Area:                    97.220725 um^2

356421366375: system.acctest.elem_matrix1_dma: SRC:0x0000000024120020, DST:0x0000000085442a20, LEN:65536
356433036375: system.acctest.elem_matrix1_dma: Transfer completed in 11.67 us
********************************************************************************
system.acctest.convolution0.compute
   ========= Performance Analysis =============
   Setup Time:                      0.304793seconds
   Simulation Time:                 421.223765seconds
   System Clock:                    1.000000GHz
   Transistor Latency:              1ns
   Runtime:                         1545605 cycles
   Runtime:                         1545.605000 us
   Stalls:                          0 cycles
   Executed Nodes:                  1545604 cycles

********************************************************************************
   ========= Performance Analysis =================
   Setup Time:                      304793135.000000ns
   Simulation Time:                 421223765196.000000ns
   System Clock:                    1.000000GHz
   Transistor Latency:              0ns
   Runtime:                         1545605 cycles
   Runtime:                         0.000155 seconds
   Stalls:                          0 cycles
       Load Only:                   0 cycles
       Store Only:                  0 cycles
       Compute Only:                0 cycles
       Compute & Store:             0 cycles
       Load & Store:                0 cycles
       Load & Compute:              0 cycles
       Load & Compute & Store:      0 cycles
   Executed Nodes:                  1545604 cycles
       Load Only:                   0 cycles
       Store Only:                  0 cycles
       Compute Only:                1127277 cycles
       Compute & Store:             16372 cycles
       Load & Store:                0 cycles
       Load & Compute:              401943 cycles
       Load & Compute & Store:      12 cycles

   ========= Runtime FU's ========= (Max | Avg) ===
   Counter FU's:                       3 | 0.112298
   Integer Add/Sub FU's:               4 | 0.211564
   Integer Mul/Div FU's:               1 | 0.052505
   Integer Shifter FU's:              10 | 0.005268
   Integer Bitwise FU's:               2 | 0.184266
   Floating Point Float Add/Sub:       5 | 0.208016
   Floating Point Double Add/Sub:      0 | 0.000000
   Floating Point Float Mul/Div:       5 | 0.052055
   Floating Point Double Mul/Div:      0 | 0.000000
   0 Cycle Compare FU's:              40 | 0.145952
   GEP Instruction FU's:               4 | 0.132683
   Type Conversion FU's:               7 | 0.186618

   ========= Static FU's ==========================
   Counter FU's:                    0
   Integer Add/Sub FU's:            0
   Integer Mul/Div FU's:            0
   Integer Shifter FU's:            0
   Integer Bitwise FU's:            0
   Floating Point Float Add/Sub:    0
   Floating Point Double Add/Sub:   0
   Floating Point Float Mul/Div:    0
   Floating Point Double Mul/Div:   0
   0 Cycle Compare FU's:            0
   GEP Instruction FU's:            0
   Type Conversion FU's:            0
   Other:                           0

   ========= Pipeline Register Usage =============
   Total Number of Registers:       1702
   Max Register Usage Per Cycle:    20
   Avg Register Usage Per Cycle:    6.348199
   Avg Register Size (Bytes):       5.569148

   ========= Memory Configuration =================
   Cache Bus Ports:                 0
   Shared Cache Size:               0kB
   Local Bus Ports:                 0
   Private SPM Size:                192kB
   Private Read Ports:              0
   Private Write Ports:             0
   Private Read Bus Width:          64
   Private Write Bus Width:         64
       Memory Reads:                0
       Memory Writes:               0
   ========= Power Analysis ======================
   FU Leakage Power:                0.196912 mW 
   FU Dynamic Power:                2743.230713 mW 
   FU Total Power:                  2743.427734 mW 

   Registers Leakage Power:          0.002459 mW 
   Registers Dynamic Power:          75.251152 mW 
       Register Reads (Bits):        9811808
       Register Writes (Bits):       10049727
   Registers Total Power:            75.253609 mW

   SPM Leakage Power:               0.068560 mW
   SPM Read Dynamic Power:          27.043978 mW
   SPM Write Dynamic Power:         4.537772 mW
   SPM Total Power:                 31.650310 mW

   Cache Leakage Power:             0.000000 mW
   Cache Read Dynamic Power:        0.000000 mW
   Cache Write Dynamic Power:       0.000000 mW
   Cache Total Power:               0.000000 mW

   Accelerator Power:               2818.681396 mW
   Accelerator Power (SPM):         2850.331707 mW
   Accelerator Power (Cache):       2818.681396 mW

   ========= Area Analysis =======================
   FU Area:                         22931.867188 um^2 (0.022932 mm^2)
   Register Area:                   199.868912 um^2 (0.000200 mm^2)
   SPM Area:                        1013.937795 um^2 (0.001014 mm^2)
   Cache Area:                      0.000000 um^2 (0.000000 mm^2)

   Accelerator Area:                23131.736328 um^2 (0.023132 mm^2)
   Accelerator Area (SPM):          24145.674123 um^2 (0.024146 mm^2)
   Accelerator Area (Cache):        23131.736328 um^2 (0.023132 mm^2)

   ========= SPM Resizing  =======================
   SPM Optimized Leakage Power:     0.001770 mW
   SPM Opt Area:                    77.453784 um^2

356863477750: system.acctest.elem_matrix0_dma: SRC:0x00000000853e0c58, DST:0x0000000024000020, LEN:65536
356886767750: system.acctest.elem_matrix0_dma: Transfer completed in 23.29 us
356892430625: system.acctest.elem_matrix0_dma: SRC:0x0000000022020020, DST:0x0000000024010020, LEN:65536
356902680625: system.acctest.elem_matrix0_dma: Transfer completed in 10.25 us
********************************************************************************
system.acctest.elem_matrix0.compute
   ========= Performance Analysis =============
   Setup Time:                      4.841501seconds
   Simulation Time:                 48.279568seconds
   System Clock:                    1.000000GHz
   Transistor Latency:              1ns
   Runtime:                         16392 cycles
   Runtime:                         16.392000 us
   Stalls:                          0 cycles
   Executed Nodes:                  16391 cycles

********************************************************************************
   ========= Performance Analysis =================
   Setup Time:                      4841500819.000000ns
   Simulation Time:                 48279568422.000000ns
   System Clock:                    1.000000GHz
   Transistor Latency:              0ns
   Runtime:                         16392 cycles
   Runtime:                         0.000002 seconds
   Stalls:                          0 cycles
       Load Only:                   0 cycles
       Store Only:                  0 cycles
       Compute Only:                0 cycles
       Compute & Store:             0 cycles
       Load & Store:                0 cycles
       Load & Compute:              0 cycles
       Load & Compute & Store:      0 cycles
   Executed Nodes:                  16391 cycles
       Load Only:                   0 cycles
       Store Only:                  4 cycles
       Compute Only:                1 cycles
       Compute & Store:             32 cycles
       Load & Store:                0 cycles
       Load & Compute:              6 cycles
       Load & Compute & Store:      16348 cycles

   ========= Runtime FU's ========= (Max | Avg) ===
   Counter FU's:                      32 | 0.031237
   Integer Add/Sub FU's:               0 | 0.000000
   Integer Mul/Div FU's:               0 | 0.000000
   Integer Shifter FU's:               0 | 0.000000
   Integer Bitwise FU's:               1 | 0.000061
   Floating Point Float Add/Sub:       0 | 0.000000
   Floating Point Double Add/Sub:      0 | 0.000000
   Floating Point Float Mul/Div:       1 | 0.999512
   Floating Point Double Mul/Div:      0 | 0.000000
   0 Cycle Compare FU's:             101 | 0.031657
   GEP Instruction FU's:              96 | 0.031235
   Type Conversion FU's:               7 | 0.004523

   ========= Static FU's ==========================
   Counter FU's:                    0
   Integer Add/Sub FU's:            0
   Integer Mul/Div FU's:            0
   Integer Shifter FU's:            0
   Integer Bitwise FU's:            0
   Floating Point Float Add/Sub:    0
   Floating Point Double Add/Sub:   0
   Floating Point Float Mul/Div:    0
   Floating Point Double Mul/Div:   0
   0 Cycle Compare FU's:            0
   GEP Instruction FU's:            0
   Type Conversion FU's:            0
   Other:                           0

   ========= Pipeline Register Usage =============
   Total Number of Registers:       5641
   Max Register Usage Per Cycle:    135
   Avg Register Usage Per Cycle:    8.090288
   Avg Register Size (Bytes):       5.980606

   ========= Memory Configuration =================
   Cache Bus Ports:                 0
   Shared Cache Size:               0kB
   Local Bus Ports:                 0
   Private SPM Size:                256kB
   Private Read Ports:              0
   Private Write Ports:             0
   Private Read Bus Width:          64
   Private Write Bus Width:         64
       Memory Reads:                0
       Memory Writes:               0
   ========= Power Analysis ======================
   FU Leakage Power:                0.045377 mW 
   FU Dynamic Power:                0.293182 mW 
   FU Total Power:                  0.338559 mW 

   Registers Leakage Power:          0.003521 mW 
   Registers Dynamic Power:          0.015320 mW 
       Register Reads (Bits):        132616
       Register Writes (Bits):       133658
   Registers Total Power:            0.018841 mW

   SPM Leakage Power:               0.099590 mW
   SPM Read Dynamic Power:          13.946613 mW
   SPM Write Dynamic Power:         10.982593 mW
   SPM Total Power:                 25.028795 mW

   Cache Leakage Power:             0.000000 mW
   Cache Read Dynamic Power:        0.000000 mW
   Cache Write Dynamic Power:       0.000000 mW
   Cache Total Power:               0.000000 mW

   Accelerator Power:               0.357400 mW
   Accelerator Power (SPM):         25.386195 mW
   Accelerator Power (Cache):       0.357400 mW

   ========= Area Analysis =======================
   FU Area:                         5472.068359 um^2 (0.005472 mm^2)
   Register Area:                   286.180725 um^2 (0.000286 mm^2)
   SPM Area:                        1894.672457 um^2 (0.001895 mm^2)
   Cache Area:                      0.000000 um^2 (0.000000 mm^2)

   Accelerator Area:                5758.249023 um^2 (0.005758 mm^2)
   Accelerator Area (SPM):          7652.921481 um^2 (0.007653 mm^2)
   Accelerator Area (Cache):        5758.249023 um^2 (0.005758 mm^2)

   ========= SPM Resizing  =======================
   SPM Optimized Leakage Power:     0.003640 mW
   SPM Opt Area:                    97.220725 um^2

356932856375: system.acctest.elem_matrix0_dma: SRC:0x0000000024020020, DST:0x00000000853e0c58, LEN:65536
356944686375: system.acctest.elem_matrix0_dma: Transfer completed in 11.83 us
Exiting @ tick 356954227500 because m5_exit instruction encountered
