
---------- Begin Simulation Statistics ----------
final_tick                                54782352500                       # Number of ticks from beginning of simulation (restored from checkpoints and never reset)
host_inst_rate                                    406                       # Simulator instruction rate (inst/s)
host_mem_usage                               22374744                       # Number of bytes of host memory used
host_op_rate                                      416                       # Simulator op (including micro ops) rate (op/s)
host_seconds                                137874.55                       # Real time elapsed on the host
host_tick_rate                                 187587                       # Simulator tick rate (ticks/s)
sim_freq                                 1000000000000                       # Frequency of simulated ticks
sim_insts                                    55979002                       # Number of instructions simulated
sim_ops                                      57396511                       # Number of ops (including micro ops) simulated
sim_seconds                                  0.025863                       # Number of seconds simulated
sim_ticks                                 25863459375                       # Number of ticks simulated
system.acctest.coherency_bus.snoop_filter.hit_multi_requests            0                       # Number of requests hitting in the snoop filter with multiple (>1) holders of the requested data.
system.acctest.coherency_bus.snoop_filter.hit_multi_snoops            0                       # Number of snoops hitting in the snoop filter with multiple (>1) holders of the requested data.
system.acctest.coherency_bus.snoop_filter.hit_single_requests            0                       # Number of requests hitting in the snoop filter with a single holder of the requested data.
system.acctest.coherency_bus.snoop_filter.hit_single_snoops            0                       # Number of snoops hitting in the snoop filter with a single holder of the requested data.
system.acctest.coherency_bus.snoop_filter.tot_requests            0                       # Total number of requests made to the snoop filter.
system.acctest.coherency_bus.snoop_filter.tot_snoops            0                       # Total number of snoops made to the snoop filter.
system.cf0.dma_read_bytes                           0                       # Number of bytes transfered via DMA reads (not PRD).
system.cf0.dma_read_full_pages                      0                       # Number of full page size DMA reads (not PRD).
system.cf0.dma_read_txs                             0                       # Number of DMA read transactions (not PRD).
system.cf0.dma_write_bytes                          0                       # Number of bytes transfered via DMA writes.
system.cf0.dma_write_full_pages                     0                       # Number of full page size DMA writes.
system.cf0.dma_write_txs                            0                       # Number of DMA write transactions.
system.cpu.branchPred.BTBCorrect                    0                       # Number of correct BTB predictions (this stat may not work properly.
system.cpu.branchPred.BTBHitPct             97.113791                       # BTB Hit Percentage
system.cpu.branchPred.BTBHits                 1664173                       # Number of BTB hits
system.cpu.branchPred.BTBLookups              1713632                       # Number of BTB lookups
system.cpu.branchPred.RASInCorrect                377                       # Number of incorrect RAS predictions.
system.cpu.branchPred.condIncorrect             30403                       # Number of conditional branches incorrect
system.cpu.branchPred.condPredicted           1746748                       # Number of conditional branches predicted
system.cpu.branchPred.indirectHits              23611                       # Number of indirect target hits.
system.cpu.branchPred.indirectLookups           28645                       # Number of indirect predictor lookups.
system.cpu.branchPred.indirectMisses             5034                       # Number of indirect misses.
system.cpu.branchPred.lookups                 1961530                       # Number of BP lookups
system.cpu.branchPred.usedRAS                   75773                       # Number of times the RAS was used to get a target.
system.cpu.branchPredindirectMispredicted         6333                       # Number of mispredicted indirect branches.
system.cpu.committedInsts                    11565628                       # Number of instructions committed
system.cpu.committedOps                      11794478                       # Number of ops (including micro ops) committed
system.cpu.cpi                               3.194681                       # CPI: cycles per instruction
system.cpu.discardedOps                         82135                       # Number of ops (including micro ops) which were discarded before commit
system.cpu.dtb.accesses                             0                       # DTB accesses
system.cpu.dtb.align_faults                         1                       # Number of TLB faults due to alignment restrictions
system.cpu.dtb.domain_faults                        0                       # Number of TLB faults due to domain restrictions
system.cpu.dtb.flush_entries                        0                       # Number of entries that have been flushed from TLB
system.cpu.dtb.flush_tlb                            0                       # Number of times complete TLB was flushed
system.cpu.dtb.flush_tlb_asid                       0                       # Number of times TLB was flushed by ASID
system.cpu.dtb.flush_tlb_mva                        0                       # Number of times TLB was flushed by MVA
system.cpu.dtb.flush_tlb_mva_asid                   0                       # Number of times TLB was flushed by MVA & ASID
system.cpu.dtb.hits                                 0                       # DTB hits
system.cpu.dtb.inst_accesses                        0                       # ITB inst accesses
system.cpu.dtb.inst_hits                            0                       # ITB inst hits
system.cpu.dtb.inst_misses                          0                       # ITB inst misses
system.cpu.dtb.misses                               0                       # DTB misses
system.cpu.dtb.perms_faults                         0                       # Number of TLB faults due to permissions restrictions
system.cpu.dtb.prefetch_faults                      0                       # Number of TLB faults due to prefetch
system.cpu.dtb.read_accesses                        0                       # DTB read accesses
system.cpu.dtb.read_hits                            0                       # DTB read hits
system.cpu.dtb.read_misses                          0                       # DTB read misses
system.cpu.dtb.stage2_mmu.stage2_tlb.accesses            0                       # DTB accesses
system.cpu.dtb.stage2_mmu.stage2_tlb.align_faults            0                       # Number of TLB faults due to alignment restrictions
system.cpu.dtb.stage2_mmu.stage2_tlb.domain_faults            0                       # Number of TLB faults due to domain restrictions
system.cpu.dtb.stage2_mmu.stage2_tlb.flush_entries            0                       # Number of entries that have been flushed from TLB
system.cpu.dtb.stage2_mmu.stage2_tlb.flush_tlb            0                       # Number of times complete TLB was flushed
system.cpu.dtb.stage2_mmu.stage2_tlb.flush_tlb_asid            0                       # Number of times TLB was flushed by ASID
system.cpu.dtb.stage2_mmu.stage2_tlb.flush_tlb_mva            0                       # Number of times TLB was flushed by MVA
system.cpu.dtb.stage2_mmu.stage2_tlb.flush_tlb_mva_asid            0                       # Number of times TLB was flushed by MVA & ASID
system.cpu.dtb.stage2_mmu.stage2_tlb.hits            0                       # DTB hits
system.cpu.dtb.stage2_mmu.stage2_tlb.inst_accesses            0                       # ITB inst accesses
system.cpu.dtb.stage2_mmu.stage2_tlb.inst_hits            0                       # ITB inst hits
system.cpu.dtb.stage2_mmu.stage2_tlb.inst_misses            0                       # ITB inst misses
system.cpu.dtb.stage2_mmu.stage2_tlb.misses            0                       # DTB misses
system.cpu.dtb.stage2_mmu.stage2_tlb.perms_faults            0                       # Number of TLB faults due to permissions restrictions
system.cpu.dtb.stage2_mmu.stage2_tlb.prefetch_faults            0                       # Number of TLB faults due to prefetch
system.cpu.dtb.stage2_mmu.stage2_tlb.read_accesses            0                       # DTB read accesses
system.cpu.dtb.stage2_mmu.stage2_tlb.read_hits            0                       # DTB read hits
system.cpu.dtb.stage2_mmu.stage2_tlb.read_misses            0                       # DTB read misses
system.cpu.dtb.stage2_mmu.stage2_tlb.walker.walkRequestOrigin_Requested::Data            0                       # Table walker requests started/completed, data/inst
system.cpu.dtb.stage2_mmu.stage2_tlb.walker.walkRequestOrigin_Requested::Inst            0                       # Table walker requests started/completed, data/inst
system.cpu.dtb.stage2_mmu.stage2_tlb.walker.walkRequestOrigin_Requested::total            0                       # Table walker requests started/completed, data/inst
system.cpu.dtb.stage2_mmu.stage2_tlb.walker.walkRequestOrigin_Completed::Data            0                       # Table walker requests started/completed, data/inst
system.cpu.dtb.stage2_mmu.stage2_tlb.walker.walkRequestOrigin_Completed::Inst            0                       # Table walker requests started/completed, data/inst
system.cpu.dtb.stage2_mmu.stage2_tlb.walker.walkRequestOrigin_Completed::total            0                       # Table walker requests started/completed, data/inst
system.cpu.dtb.stage2_mmu.stage2_tlb.walker.walkRequestOrigin::total            0                       # Table walker requests started/completed, data/inst
system.cpu.dtb.stage2_mmu.stage2_tlb.walker.walks            0                       # Table walker walks requested
system.cpu.dtb.stage2_mmu.stage2_tlb.write_accesses            0                       # DTB write accesses
system.cpu.dtb.stage2_mmu.stage2_tlb.write_hits            0                       # DTB write hits
system.cpu.dtb.stage2_mmu.stage2_tlb.write_misses            0                       # DTB write misses
system.cpu.dtb.walker.walkRequestOrigin_Requested::Data            0                       # Table walker requests started/completed, data/inst
system.cpu.dtb.walker.walkRequestOrigin_Requested::Inst            0                       # Table walker requests started/completed, data/inst
system.cpu.dtb.walker.walkRequestOrigin_Requested::total            0                       # Table walker requests started/completed, data/inst
system.cpu.dtb.walker.walkRequestOrigin_Completed::Data            0                       # Table walker requests started/completed, data/inst
system.cpu.dtb.walker.walkRequestOrigin_Completed::Inst            0                       # Table walker requests started/completed, data/inst
system.cpu.dtb.walker.walkRequestOrigin_Completed::total            0                       # Table walker requests started/completed, data/inst
system.cpu.dtb.walker.walkRequestOrigin::total            0                       # Table walker requests started/completed, data/inst
system.cpu.dtb.walker.walks                         0                       # Table walker walks requested
system.cpu.dtb.write_accesses                       0                       # DTB write accesses
system.cpu.dtb.write_hits                           0                       # DTB write hits
system.cpu.dtb.write_misses                         0                       # DTB write misses
system.cpu.fetch2.amo_instructions                  0                       # Number of memory atomic instructions successfully decoded
system.cpu.fetch2.fp_instructions                   0                       # Number of floating point instructions successfully decoded
system.cpu.fetch2.int_instructions            6247509                       # Number of integer instructions successfully decoded
system.cpu.fetch2.load_instructions            715710                       # Number of memory load instructions successfully decoded
system.cpu.fetch2.store_instructions          3092395                       # Number of memory store instructions successfully decoded
system.cpu.fetch2.vec_instructions                  0                       # Number of SIMD instructions successfully decoded
system.cpu.idleCycles                        12353398                       # Total number of cycles that the object has spent stopped
system.cpu.ipc                               0.313020                       # IPC: instructions per cycle
system.cpu.itb.accesses                             0                       # DTB accesses
system.cpu.itb.align_faults                         0                       # Number of TLB faults due to alignment restrictions
system.cpu.itb.domain_faults                        0                       # Number of TLB faults due to domain restrictions
system.cpu.itb.flush_entries                        0                       # Number of entries that have been flushed from TLB
system.cpu.itb.flush_tlb                            0                       # Number of times complete TLB was flushed
system.cpu.itb.flush_tlb_asid                       0                       # Number of times TLB was flushed by ASID
system.cpu.itb.flush_tlb_mva                        0                       # Number of times TLB was flushed by MVA
system.cpu.itb.flush_tlb_mva_asid                   0                       # Number of times TLB was flushed by MVA & ASID
system.cpu.itb.hits                                 0                       # DTB hits
system.cpu.itb.inst_accesses                        0                       # ITB inst accesses
system.cpu.itb.inst_hits                            0                       # ITB inst hits
system.cpu.itb.inst_misses                          0                       # ITB inst misses
system.cpu.itb.misses                               0                       # DTB misses
system.cpu.itb.perms_faults                         0                       # Number of TLB faults due to permissions restrictions
system.cpu.itb.prefetch_faults                      0                       # Number of TLB faults due to prefetch
system.cpu.itb.read_accesses                        0                       # DTB read accesses
system.cpu.itb.read_hits                            0                       # DTB read hits
system.cpu.itb.read_misses                          0                       # DTB read misses
system.cpu.itb.stage2_mmu.stage2_tlb.accesses            0                       # DTB accesses
system.cpu.itb.stage2_mmu.stage2_tlb.align_faults            0                       # Number of TLB faults due to alignment restrictions
system.cpu.itb.stage2_mmu.stage2_tlb.domain_faults            0                       # Number of TLB faults due to domain restrictions
system.cpu.itb.stage2_mmu.stage2_tlb.flush_entries            0                       # Number of entries that have been flushed from TLB
system.cpu.itb.stage2_mmu.stage2_tlb.flush_tlb            0                       # Number of times complete TLB was flushed
system.cpu.itb.stage2_mmu.stage2_tlb.flush_tlb_asid            0                       # Number of times TLB was flushed by ASID
system.cpu.itb.stage2_mmu.stage2_tlb.flush_tlb_mva            0                       # Number of times TLB was flushed by MVA
system.cpu.itb.stage2_mmu.stage2_tlb.flush_tlb_mva_asid            0                       # Number of times TLB was flushed by MVA & ASID
system.cpu.itb.stage2_mmu.stage2_tlb.hits            0                       # DTB hits
system.cpu.itb.stage2_mmu.stage2_tlb.inst_accesses            0                       # ITB inst accesses
system.cpu.itb.stage2_mmu.stage2_tlb.inst_hits            0                       # ITB inst hits
system.cpu.itb.stage2_mmu.stage2_tlb.inst_misses            0                       # ITB inst misses
system.cpu.itb.stage2_mmu.stage2_tlb.misses            0                       # DTB misses
system.cpu.itb.stage2_mmu.stage2_tlb.perms_faults            0                       # Number of TLB faults due to permissions restrictions
system.cpu.itb.stage2_mmu.stage2_tlb.prefetch_faults            0                       # Number of TLB faults due to prefetch
system.cpu.itb.stage2_mmu.stage2_tlb.read_accesses            0                       # DTB read accesses
system.cpu.itb.stage2_mmu.stage2_tlb.read_hits            0                       # DTB read hits
system.cpu.itb.stage2_mmu.stage2_tlb.read_misses            0                       # DTB read misses
system.cpu.itb.stage2_mmu.stage2_tlb.walker.walkRequestOrigin_Requested::Data            0                       # Table walker requests started/completed, data/inst
system.cpu.itb.stage2_mmu.stage2_tlb.walker.walkRequestOrigin_Requested::Inst            0                       # Table walker requests started/completed, data/inst
system.cpu.itb.stage2_mmu.stage2_tlb.walker.walkRequestOrigin_Requested::total            0                       # Table walker requests started/completed, data/inst
system.cpu.itb.stage2_mmu.stage2_tlb.walker.walkRequestOrigin_Completed::Data            0                       # Table walker requests started/completed, data/inst
system.cpu.itb.stage2_mmu.stage2_tlb.walker.walkRequestOrigin_Completed::Inst            0                       # Table walker requests started/completed, data/inst
system.cpu.itb.stage2_mmu.stage2_tlb.walker.walkRequestOrigin_Completed::total            0                       # Table walker requests started/completed, data/inst
system.cpu.itb.stage2_mmu.stage2_tlb.walker.walkRequestOrigin::total            0                       # Table walker requests started/completed, data/inst
system.cpu.itb.stage2_mmu.stage2_tlb.walker.walks            0                       # Table walker walks requested
system.cpu.itb.stage2_mmu.stage2_tlb.write_accesses            0                       # DTB write accesses
system.cpu.itb.stage2_mmu.stage2_tlb.write_hits            0                       # DTB write hits
system.cpu.itb.stage2_mmu.stage2_tlb.write_misses            0                       # DTB write misses
system.cpu.itb.walker.walkRequestOrigin_Requested::Data            0                       # Table walker requests started/completed, data/inst
system.cpu.itb.walker.walkRequestOrigin_Requested::Inst            0                       # Table walker requests started/completed, data/inst
system.cpu.itb.walker.walkRequestOrigin_Requested::total            0                       # Table walker requests started/completed, data/inst
system.cpu.itb.walker.walkRequestOrigin_Completed::Data            0                       # Table walker requests started/completed, data/inst
system.cpu.itb.walker.walkRequestOrigin_Completed::Inst            0                       # Table walker requests started/completed, data/inst
system.cpu.itb.walker.walkRequestOrigin_Completed::total            0                       # Table walker requests started/completed, data/inst
system.cpu.itb.walker.walkRequestOrigin::total            0                       # Table walker requests started/completed, data/inst
system.cpu.itb.walker.walks                         0                       # Table walker walks requested
system.cpu.itb.write_accesses                       0                       # DTB write accesses
system.cpu.itb.write_hits                           0                       # DTB write hits
system.cpu.itb.write_misses                         0                       # DTB write misses
system.cpu.kern.inst.arm                            0                       # number of arm instructions executed
system.cpu.kern.inst.quiesce                      231                       # number of quiesce instructions executed
system.cpu.numCycles                         36948488                       # number of cpu cycles simulated
system.cpu.numFetchSuspends                       231                       # Number of times Execute suspended instruction fetching
system.cpu.numWorkItemsCompleted                    0                       # number of work items this cpu completed
system.cpu.numWorkItemsStarted                      0                       # number of work items this cpu started
system.cpu.op_class_0::No_OpClass                   0      0.00%      0.00% # Class of committed instruction
system.cpu.op_class_0::IntAlu                 7861766     66.66%     66.66% # Class of committed instruction
system.cpu.op_class_0::IntMult                  29005      0.25%     66.90% # Class of committed instruction
system.cpu.op_class_0::IntDiv                       0      0.00%     66.90% # Class of committed instruction
system.cpu.op_class_0::FloatAdd                     0      0.00%     66.90% # Class of committed instruction
system.cpu.op_class_0::FloatCmp                     0      0.00%     66.90% # Class of committed instruction
system.cpu.op_class_0::FloatCvt                     0      0.00%     66.90% # Class of committed instruction
system.cpu.op_class_0::FloatMult                    0      0.00%     66.90% # Class of committed instruction
system.cpu.op_class_0::FloatMultAcc                 0      0.00%     66.90% # Class of committed instruction
system.cpu.op_class_0::FloatDiv                     0      0.00%     66.90% # Class of committed instruction
system.cpu.op_class_0::FloatMisc                    0      0.00%     66.90% # Class of committed instruction
system.cpu.op_class_0::FloatSqrt                    0      0.00%     66.90% # Class of committed instruction
system.cpu.op_class_0::SimdAdd                      0      0.00%     66.90% # Class of committed instruction
system.cpu.op_class_0::SimdAddAcc                   0      0.00%     66.90% # Class of committed instruction
system.cpu.op_class_0::SimdAlu                      0      0.00%     66.90% # Class of committed instruction
system.cpu.op_class_0::SimdCmp                      0      0.00%     66.90% # Class of committed instruction
system.cpu.op_class_0::SimdCvt                      0      0.00%     66.90% # Class of committed instruction
system.cpu.op_class_0::SimdMisc                     0      0.00%     66.90% # Class of committed instruction
system.cpu.op_class_0::SimdMult                     0      0.00%     66.90% # Class of committed instruction
system.cpu.op_class_0::SimdMultAcc                  0      0.00%     66.90% # Class of committed instruction
system.cpu.op_class_0::SimdShift                    0      0.00%     66.90% # Class of committed instruction
system.cpu.op_class_0::SimdShiftAcc                 0      0.00%     66.90% # Class of committed instruction
system.cpu.op_class_0::SimdDiv                      0      0.00%     66.90% # Class of committed instruction
system.cpu.op_class_0::SimdSqrt                     0      0.00%     66.90% # Class of committed instruction
system.cpu.op_class_0::SimdFloatAdd                 0      0.00%     66.90% # Class of committed instruction
system.cpu.op_class_0::SimdFloatAlu                 0      0.00%     66.90% # Class of committed instruction
system.cpu.op_class_0::SimdFloatCmp                 0      0.00%     66.90% # Class of committed instruction
system.cpu.op_class_0::SimdFloatCvt                 0      0.00%     66.90% # Class of committed instruction
system.cpu.op_class_0::SimdFloatDiv                 0      0.00%     66.90% # Class of committed instruction
system.cpu.op_class_0::SimdFloatMisc                0      0.00%     66.90% # Class of committed instruction
system.cpu.op_class_0::SimdFloatMult                0      0.00%     66.90% # Class of committed instruction
system.cpu.op_class_0::SimdFloatMultAcc             0      0.00%     66.90% # Class of committed instruction
system.cpu.op_class_0::SimdFloatSqrt                0      0.00%     66.90% # Class of committed instruction
system.cpu.op_class_0::SimdReduceAdd                0      0.00%     66.90% # Class of committed instruction
system.cpu.op_class_0::SimdReduceAlu                0      0.00%     66.90% # Class of committed instruction
system.cpu.op_class_0::SimdReduceCmp                0      0.00%     66.90% # Class of committed instruction
system.cpu.op_class_0::SimdFloatReduceAdd            0      0.00%     66.90% # Class of committed instruction
system.cpu.op_class_0::SimdFloatReduceCmp            0      0.00%     66.90% # Class of committed instruction
system.cpu.op_class_0::SimdAes                      0      0.00%     66.90% # Class of committed instruction
system.cpu.op_class_0::SimdAesMix                   0      0.00%     66.90% # Class of committed instruction
system.cpu.op_class_0::SimdSha1Hash                 0      0.00%     66.90% # Class of committed instruction
system.cpu.op_class_0::SimdSha1Hash2                0      0.00%     66.90% # Class of committed instruction
system.cpu.op_class_0::SimdSha256Hash               0      0.00%     66.90% # Class of committed instruction
system.cpu.op_class_0::SimdSha256Hash2              0      0.00%     66.90% # Class of committed instruction
system.cpu.op_class_0::SimdShaSigma2                0      0.00%     66.90% # Class of committed instruction
system.cpu.op_class_0::SimdShaSigma3                0      0.00%     66.90% # Class of committed instruction
system.cpu.op_class_0::SimdPredAlu                  0      0.00%     66.90% # Class of committed instruction
system.cpu.op_class_0::MemRead                 724753      6.14%     73.05% # Class of committed instruction
system.cpu.op_class_0::MemWrite               3178954     26.95%    100.00% # Class of committed instruction
system.cpu.op_class_0::FloatMemRead                 0      0.00%    100.00% # Class of committed instruction
system.cpu.op_class_0::FloatMemWrite                0      0.00%    100.00% # Class of committed instruction
system.cpu.op_class_0::IprAccess                    0      0.00%    100.00% # Class of committed instruction
system.cpu.op_class_0::InstPrefetch                 0      0.00%    100.00% # Class of committed instruction
system.cpu.op_class_0::total                 11794478                       # Class of committed instruction
system.cpu.quiesceCycles                      4433047                       # Total number of cycles that CPU has spent quiesced or waiting for an interrupt
system.cpu.tickCycles                        24595090                       # Number of cycles that the object actually ticked
system.membus.snoop_filter.hit_multi_requests         1717                       # Number of requests hitting in the snoop filter with multiple (>1) holders of the requested data.
system.membus.snoop_filter.hit_multi_snoops            0                       # Number of snoops hitting in the snoop filter with multiple (>1) holders of the requested data.
system.membus.snoop_filter.hit_single_requests        15619                       # Number of requests hitting in the snoop filter with a single holder of the requested data.
system.membus.snoop_filter.hit_single_snoops            0                       # Number of snoops hitting in the snoop filter with a single holder of the requested data.
system.membus.snoop_filter.tot_requests       2797333                       # Total number of requests made to the snoop filter.
system.membus.snoop_filter.tot_snoops               0                       # Total number of snoops made to the snoop filter.
system.bridge.pwrStateResidencyTicks::UNDEFINED  54782352500                       # Cumulative time (in ticks) in various power states
system.voltage_domain.voltage                       1                       # Voltage in Volts
system.iocache.pwrStateResidencyTicks::UNDEFINED  54782352500                       # Cumulative time (in ticks) in various power states
system.iocache.blocked_cycles::no_mshrs             0                       # number of cycles access was blocked
system.iocache.blocked_cycles::no_targets            0                       # number of cycles access was blocked
system.iocache.blocked::no_mshrs                    0                       # number of cycles access was blocked
system.iocache.blocked::no_targets                  0                       # number of cycles access was blocked
system.iocache.avg_blocked_cycles::no_mshrs          nan                       # average number of cycles each access was blocked
system.iocache.avg_blocked_cycles::no_targets          nan                       # average number of cycles each access was blocked
system.iocache.replacements                         0                       # number of replacements
system.iocache.tags.pwrStateResidencyTicks::UNDEFINED  54782352500                       # Cumulative time (in ticks) in various power states
system.iocache.tags.tagsinuse                       0                       # Cycle average of tags in use
system.iocache.tags.total_refs                      0                       # Total number of references to valid blocks.
system.iocache.tags.sampled_refs                    0                       # Sample count of references to valid blocks.
system.iocache.tags.avg_refs                      nan                       # Average number of references to valid blocks.
system.iocache.tags.warmup_cycle                    0                       # Cycle when the warmup percentage was hit.
system.iocache.tags.tag_accesses                    0                       # Number of tag accesses
system.iocache.tags.data_accesses                   0                       # Number of data accesses
system.membus.pwrStateResidencyTicks::UNDEFINED  54782352500                       # Cumulative time (in ticks) in various power states
system.membus.trans_dist::ReadReq             1030558                       # Transaction distribution
system.membus.trans_dist::ReadResp            1045320                       # Transaction distribution
system.membus.trans_dist::WriteReq             379652                       # Transaction distribution
system.membus.trans_dist::WriteResp            379652                       # Transaction distribution
system.membus.trans_dist::WritebackDirty         2796                       # Transaction distribution
system.membus.trans_dist::CleanEvict            12807                       # Transaction distribution
system.membus.trans_dist::ReadExReq              1035                       # Transaction distribution
system.membus.trans_dist::ReadExResp             1036                       # Transaction distribution
system.membus.trans_dist::ReadCleanReq          11683                       # Transaction distribution
system.membus.trans_dist::ReadSharedReq          3080                       # Transaction distribution
system.membus.trans_dist::CleanInvalidReq      1382964                       # Transaction distribution
system.membus.trans_dist::InvalidateReq       1382964                       # Transaction distribution
system.membus.pkt_count_system.cpu.icache.mem_side::system.realview.bootmem.port        34852                       # Packet count per connected master and slave (bytes)
system.membus.pkt_count_system.cpu.icache.mem_side::total        34852                       # Packet count per connected master and slave (bytes)
system.membus.pkt_count_system.cpu.dcache.mem_side::system.realview.bootmem.port           74                       # Packet count per connected master and slave (bytes)
system.membus.pkt_count_system.cpu.dcache.mem_side::system.realview.gic.pio        10664                       # Packet count per connected master and slave (bytes)
system.membus.pkt_count_system.cpu.dcache.mem_side::system.mem_ctrls.port      2778201                       # Packet count per connected master and slave (bytes)
system.membus.pkt_count_system.cpu.dcache.mem_side::system.acctest.mem2cls.slave        43828                       # Packet count per connected master and slave (bytes)
system.membus.pkt_count_system.cpu.dcache.mem_side::total      2832767                       # Packet count per connected master and slave (bytes)
system.membus.pkt_count_system.acctest.coherency_bus.master[0]::system.mem_ctrls.port      2765928                       # Packet count per connected master and slave (bytes)
system.membus.pkt_count_system.acctest.coherency_bus.master[0]::total      2765928                       # Packet count per connected master and slave (bytes)
system.membus.pkt_count::total                5633547                       # Packet count per connected master and slave (bytes)
system.membus.pkt_size_system.cpu.icache.mem_side::system.realview.bootmem.port       747648                       # Cumulative packet size per connected master and slave (bytes)
system.membus.pkt_size_system.cpu.icache.mem_side::total       747648                       # Cumulative packet size per connected master and slave (bytes)
system.membus.pkt_size_system.cpu.dcache.mem_side::system.realview.bootmem.port         1920                       # Cumulative packet size per connected master and slave (bytes)
system.membus.pkt_size_system.cpu.dcache.mem_side::system.realview.gic.pio        21328                       # Cumulative packet size per connected master and slave (bytes)
system.membus.pkt_size_system.cpu.dcache.mem_side::system.mem_ctrls.port       440448                       # Cumulative packet size per connected master and slave (bytes)
system.membus.pkt_size_system.cpu.dcache.mem_side::system.acctest.mem2cls.slave        58628                       # Cumulative packet size per connected master and slave (bytes)
system.membus.pkt_size_system.cpu.dcache.mem_side::total       522324                       # Cumulative packet size per connected master and slave (bytes)
system.membus.pkt_size_system.acctest.coherency_bus.master[0]::system.mem_ctrls.port     88509120                       # Cumulative packet size per connected master and slave (bytes)
system.membus.pkt_size_system.acctest.coherency_bus.master[0]::total     88509120                       # Cumulative packet size per connected master and slave (bytes)
system.membus.pkt_size::total                89779092                       # Cumulative packet size per connected master and slave (bytes)
system.membus.snoops                                0                       # Total snoops (count)
system.membus.snoopTraffic                          0                       # Total snoop traffic (bytes)
system.membus.snoop_fanout::samples           4192750                       # Request fanout histogram
system.membus.snoop_fanout::mean             0.000413                       # Request fanout histogram
system.membus.snoop_fanout::stdev            0.020326                       # Request fanout histogram
system.membus.snoop_fanout::underflows              0      0.00%      0.00% # Request fanout histogram
system.membus.snoop_fanout::0                 4191017     99.96%     99.96% # Request fanout histogram
system.membus.snoop_fanout::1                    1733      0.04%    100.00% # Request fanout histogram
system.membus.snoop_fanout::2                       0      0.00%    100.00% # Request fanout histogram
system.membus.snoop_fanout::3                       0      0.00%    100.00% # Request fanout histogram
system.membus.snoop_fanout::4                       0      0.00%    100.00% # Request fanout histogram
system.membus.snoop_fanout::overflows               0      0.00%    100.00% # Request fanout histogram
system.membus.snoop_fanout::min_value               0                       # Request fanout histogram
system.membus.snoop_fanout::max_value               1                       # Request fanout histogram
system.membus.snoop_fanout::total             4192750                       # Request fanout histogram
system.membus.reqLayer6.occupancy          6600681051                       # Layer occupancy (ticks)
system.membus.reqLayer6.utilization              25.5                       # Layer utilization (%)
system.membus.reqLayer7.occupancy            55282125                       # Layer occupancy (ticks)
system.membus.reqLayer7.utilization               0.2                       # Layer utilization (%)
system.membus.reqLayer1.occupancy            33809531                       # Layer occupancy (ticks)
system.membus.reqLayer1.utilization               0.1                       # Layer utilization (%)
system.membus.reqLayer2.occupancy            10380250                       # Layer occupancy (ticks)
system.membus.reqLayer2.utilization               0.0                       # Layer utilization (%)
system.membus.badaddr_responder.pwrStateResidencyTicks::UNDEFINED  54782352500                       # Cumulative time (in ticks) in various power states
system.membus.respLayer4.occupancy           52576535                       # Layer occupancy (ticks)
system.membus.respLayer4.utilization              0.2                       # Layer utilization (%)
system.membus.respLayer7.occupancy         6039239503                       # Layer occupancy (ticks)
system.membus.respLayer7.utilization             23.4                       # Layer utilization (%)
system.membus.respLayer3.occupancy           59694000                       # Layer occupancy (ticks)
system.membus.respLayer3.utilization              0.2                       # Layer utilization (%)
system.acctest.harris_non_max0_spm.pwrStateResidencyTicks::UNDEFINED  54782352500                       # Cumulative time (in ticks) in various power states
system.acctest.elem_matrix2_spm.pwrStateResidencyTicks::UNDEFINED  54782352500                       # Cumulative time (in ticks) in various power states
system.acctest.elem_matrix2_spm.bytes_read::.acctest.canny_non_max0_dma        65536                       # Number of bytes read from this memory
system.acctest.elem_matrix2_spm.bytes_read::.acctest.elem_matrix0_dma      1114112                       # Number of bytes read from this memory
system.acctest.elem_matrix2_spm.bytes_read::.acctest.elem_matrix1_dma       917504                       # Number of bytes read from this memory
system.acctest.elem_matrix2_spm.bytes_read::.acctest.elem_matrix2.system.acctest.elem_matrix2     30932992                       # Number of bytes read from this memory
system.acctest.elem_matrix2_spm.bytes_read::.acctest.elem_matrix2_dma      5701632                       # Number of bytes read from this memory
system.acctest.elem_matrix2_spm.bytes_read::.acctest.elem_matrix3_dma       917504                       # Number of bytes read from this memory
system.acctest.elem_matrix2_spm.bytes_read::total     39649280                       # Number of bytes read from this memory
system.acctest.elem_matrix2_spm.bytes_written::.acctest.elem_matrix2.system.acctest.elem_matrix2     17694720                       # Number of bytes written to this memory
system.acctest.elem_matrix2_spm.bytes_written::.acctest.elem_matrix2_dma     18808832                       # Number of bytes written to this memory
system.acctest.elem_matrix2_spm.bytes_written::total     36503552                       # Number of bytes written to this memory
system.acctest.elem_matrix2_spm.num_reads::.acctest.canny_non_max0_dma         2048                       # Number of read requests responded to by this memory
system.acctest.elem_matrix2_spm.num_reads::.acctest.elem_matrix0_dma        34816                       # Number of read requests responded to by this memory
system.acctest.elem_matrix2_spm.num_reads::.acctest.elem_matrix1_dma        28672                       # Number of read requests responded to by this memory
system.acctest.elem_matrix2_spm.num_reads::.acctest.elem_matrix2.system.acctest.elem_matrix2      7733248                       # Number of read requests responded to by this memory
system.acctest.elem_matrix2_spm.num_reads::.acctest.elem_matrix2_dma       178176                       # Number of read requests responded to by this memory
system.acctest.elem_matrix2_spm.num_reads::.acctest.elem_matrix3_dma        28672                       # Number of read requests responded to by this memory
system.acctest.elem_matrix2_spm.num_reads::total      8005632                       # Number of read requests responded to by this memory
system.acctest.elem_matrix2_spm.num_writes::.acctest.elem_matrix2.system.acctest.elem_matrix2      4423680                       # Number of write requests responded to by this memory
system.acctest.elem_matrix2_spm.num_writes::.acctest.elem_matrix2_dma       587776                       # Number of write requests responded to by this memory
system.acctest.elem_matrix2_spm.num_writes::total      5011456                       # Number of write requests responded to by this memory
system.acctest.elem_matrix2_spm.bw_read::.acctest.canny_non_max0_dma      2533922                       # Total read bandwidth from this memory (bytes/s)
system.acctest.elem_matrix2_spm.bw_read::.acctest.elem_matrix0_dma     43076681                       # Total read bandwidth from this memory (bytes/s)
system.acctest.elem_matrix2_spm.bw_read::.acctest.elem_matrix1_dma     35474914                       # Total read bandwidth from this memory (bytes/s)
system.acctest.elem_matrix2_spm.bw_read::.acctest.elem_matrix2.system.acctest.elem_matrix2   1196011390                       # Total read bandwidth from this memory (bytes/s)
system.acctest.elem_matrix2_spm.bw_read::.acctest.elem_matrix2_dma    220451252                       # Total read bandwidth from this memory (bytes/s)
system.acctest.elem_matrix2_spm.bw_read::.acctest.elem_matrix3_dma     35474914                       # Total read bandwidth from this memory (bytes/s)
system.acctest.elem_matrix2_spm.bw_read::total   1533023074                       # Total read bandwidth from this memory (bytes/s)
system.acctest.elem_matrix2_spm.bw_write::.acctest.elem_matrix2.system.acctest.elem_matrix2    684159058                       # Write bandwidth from this memory (bytes/s)
system.acctest.elem_matrix2_spm.bw_write::.acctest.elem_matrix2_dma    727235739                       # Write bandwidth from this memory (bytes/s)
system.acctest.elem_matrix2_spm.bw_write::total   1411394797                       # Write bandwidth from this memory (bytes/s)
system.acctest.elem_matrix2_spm.bw_total::.acctest.canny_non_max0_dma      2533922                       # Total bandwidth to/from this memory (bytes/s)
system.acctest.elem_matrix2_spm.bw_total::.acctest.elem_matrix0_dma     43076681                       # Total bandwidth to/from this memory (bytes/s)
system.acctest.elem_matrix2_spm.bw_total::.acctest.elem_matrix1_dma     35474914                       # Total bandwidth to/from this memory (bytes/s)
system.acctest.elem_matrix2_spm.bw_total::.acctest.elem_matrix2.system.acctest.elem_matrix2   1880170448                       # Total bandwidth to/from this memory (bytes/s)
system.acctest.elem_matrix2_spm.bw_total::.acctest.elem_matrix2_dma    947686991                       # Total bandwidth to/from this memory (bytes/s)
system.acctest.elem_matrix2_spm.bw_total::.acctest.elem_matrix3_dma     35474914                       # Total bandwidth to/from this memory (bytes/s)
system.acctest.elem_matrix2_spm.bw_total::total   2944417871                       # Total bandwidth to/from this memory (bytes/s)
system.acctest.elem_matrix3_spm.pwrStateResidencyTicks::UNDEFINED  54782352500                       # Cumulative time (in ticks) in various power states
system.acctest.elem_matrix3_spm.bytes_read::.acctest.elem_matrix0_dma      1114112                       # Number of bytes read from this memory
system.acctest.elem_matrix3_spm.bytes_read::.acctest.elem_matrix1_dma      1376256                       # Number of bytes read from this memory
system.acctest.elem_matrix3_spm.bytes_read::.acctest.elem_matrix2_dma       786432                       # Number of bytes read from this memory
system.acctest.elem_matrix3_spm.bytes_read::.acctest.elem_matrix3.system.acctest.elem_matrix3     30932992                       # Number of bytes read from this memory
system.acctest.elem_matrix3_spm.bytes_read::.acctest.elem_matrix3_dma      5046272                       # Number of bytes read from this memory
system.acctest.elem_matrix3_spm.bytes_read::total     39256064                       # Number of bytes read from this memory
system.acctest.elem_matrix3_spm.bytes_written::.acctest.elem_matrix3.system.acctest.elem_matrix3     17498112                       # Number of bytes written to this memory
system.acctest.elem_matrix3_spm.bytes_written::.acctest.elem_matrix3_dma     19595264                       # Number of bytes written to this memory
system.acctest.elem_matrix3_spm.bytes_written::total     37093376                       # Number of bytes written to this memory
system.acctest.elem_matrix3_spm.num_reads::.acctest.elem_matrix0_dma        34816                       # Number of read requests responded to by this memory
system.acctest.elem_matrix3_spm.num_reads::.acctest.elem_matrix1_dma        43008                       # Number of read requests responded to by this memory
system.acctest.elem_matrix3_spm.num_reads::.acctest.elem_matrix2_dma        24576                       # Number of read requests responded to by this memory
system.acctest.elem_matrix3_spm.num_reads::.acctest.elem_matrix3.system.acctest.elem_matrix3      7733248                       # Number of read requests responded to by this memory
system.acctest.elem_matrix3_spm.num_reads::.acctest.elem_matrix3_dma       157696                       # Number of read requests responded to by this memory
system.acctest.elem_matrix3_spm.num_reads::total      7993344                       # Number of read requests responded to by this memory
system.acctest.elem_matrix3_spm.num_writes::.acctest.elem_matrix3.system.acctest.elem_matrix3      4374528                       # Number of write requests responded to by this memory
system.acctest.elem_matrix3_spm.num_writes::.acctest.elem_matrix3_dma       612352                       # Number of write requests responded to by this memory
system.acctest.elem_matrix3_spm.num_writes::total      4986880                       # Number of write requests responded to by this memory
system.acctest.elem_matrix3_spm.bw_read::.acctest.elem_matrix0_dma     43076681                       # Total read bandwidth from this memory (bytes/s)
system.acctest.elem_matrix3_spm.bw_read::.acctest.elem_matrix1_dma     53212371                       # Total read bandwidth from this memory (bytes/s)
system.acctest.elem_matrix3_spm.bw_read::.acctest.elem_matrix2_dma     30407069                       # Total read bandwidth from this memory (bytes/s)
system.acctest.elem_matrix3_spm.bw_read::.acctest.elem_matrix3.system.acctest.elem_matrix3   1196011390                       # Total read bandwidth from this memory (bytes/s)
system.acctest.elem_matrix3_spm.bw_read::.acctest.elem_matrix3_dma    195112028                       # Total read bandwidth from this memory (bytes/s)
system.acctest.elem_matrix3_spm.bw_read::total   1517819540                       # Total read bandwidth from this memory (bytes/s)
system.acctest.elem_matrix3_spm.bw_write::.acctest.elem_matrix3.system.acctest.elem_matrix3    676557291                       # Write bandwidth from this memory (bytes/s)
system.acctest.elem_matrix3_spm.bw_write::.acctest.elem_matrix3_dma    757642809                       # Write bandwidth from this memory (bytes/s)
system.acctest.elem_matrix3_spm.bw_write::total   1434200099                       # Write bandwidth from this memory (bytes/s)
system.acctest.elem_matrix3_spm.bw_total::.acctest.elem_matrix0_dma     43076681                       # Total bandwidth to/from this memory (bytes/s)
system.acctest.elem_matrix3_spm.bw_total::.acctest.elem_matrix1_dma     53212371                       # Total bandwidth to/from this memory (bytes/s)
system.acctest.elem_matrix3_spm.bw_total::.acctest.elem_matrix2_dma     30407069                       # Total bandwidth to/from this memory (bytes/s)
system.acctest.elem_matrix3_spm.bw_total::.acctest.elem_matrix3.system.acctest.elem_matrix3   1872568681                       # Total bandwidth to/from this memory (bytes/s)
system.acctest.elem_matrix3_spm.bw_total::.acctest.elem_matrix3_dma    952754836                       # Total bandwidth to/from this memory (bytes/s)
system.acctest.elem_matrix3_spm.bw_total::total   2952019639                       # Total bandwidth to/from this memory (bytes/s)
system.acctest.local_bus.pwrStateResidencyTicks::UNDEFINED  54782352500                       # Cumulative time (in ticks) in various power states
system.acctest.local_bus.trans_dist::ReadReq      1103872                       # Transaction distribution
system.acctest.local_bus.trans_dist::ReadResp      1103872                       # Transaction distribution
system.acctest.local_bus.trans_dist::WriteReq      2471422                       # Transaction distribution
system.acctest.local_bus.trans_dist::WriteResp      2471422                       # Transaction distribution
system.acctest.local_bus.pkt_count_system.acctest.mem2cls.master::system.acctest.canny_non_max0.pio           48                       # Packet count per connected master and slave (bytes)
system.acctest.local_bus.pkt_count_system.acctest.mem2cls.master::system.acctest.canny_non_max0_dma.pio          112                       # Packet count per connected master and slave (bytes)
system.acctest.local_bus.pkt_count_system.acctest.mem2cls.master::system.acctest.convolution0.pio          120                       # Packet count per connected master and slave (bytes)
system.acctest.local_bus.pkt_count_system.acctest.mem2cls.master::system.acctest.convolution0_dma.pio          224                       # Packet count per connected master and slave (bytes)
system.acctest.local_bus.pkt_count_system.acctest.mem2cls.master::system.acctest.convolution1.pio          120                       # Packet count per connected master and slave (bytes)
system.acctest.local_bus.pkt_count_system.acctest.mem2cls.master::system.acctest.convolution1_dma.pio          224                       # Packet count per connected master and slave (bytes)
system.acctest.local_bus.pkt_count_system.acctest.mem2cls.master::system.acctest.edge_tracking0.pio           64                       # Packet count per connected master and slave (bytes)
system.acctest.local_bus.pkt_count_system.acctest.mem2cls.master::system.acctest.edge_tracking0_dma.pio          112                       # Packet count per connected master and slave (bytes)
system.acctest.local_bus.pkt_count_system.acctest.mem2cls.master::system.acctest.elem_matrix0.pio         5460                       # Packet count per connected master and slave (bytes)
system.acctest.local_bus.pkt_count_system.acctest.mem2cls.master::system.acctest.elem_matrix0_dma.pio         5250                       # Packet count per connected master and slave (bytes)
system.acctest.local_bus.pkt_count_system.acctest.mem2cls.master::system.acctest.elem_matrix1.pio         5320                       # Packet count per connected master and slave (bytes)
system.acctest.local_bus.pkt_count_system.acctest.mem2cls.master::system.acctest.elem_matrix1_dma.pio         5292                       # Packet count per connected master and slave (bytes)
system.acctest.local_bus.pkt_count_system.acctest.mem2cls.master::system.acctest.elem_matrix2.pio         5400                       # Packet count per connected master and slave (bytes)
system.acctest.local_bus.pkt_count_system.acctest.mem2cls.master::system.acctest.elem_matrix2_dma.pio         5236                       # Packet count per connected master and slave (bytes)
system.acctest.local_bus.pkt_count_system.acctest.mem2cls.master::system.acctest.elem_matrix3.pio         5340                       # Packet count per connected master and slave (bytes)
system.acctest.local_bus.pkt_count_system.acctest.mem2cls.master::system.acctest.elem_matrix3_dma.pio         5264                       # Packet count per connected master and slave (bytes)
system.acctest.local_bus.pkt_count_system.acctest.mem2cls.master::system.acctest.grayscale0.pio           40                       # Packet count per connected master and slave (bytes)
system.acctest.local_bus.pkt_count_system.acctest.mem2cls.master::system.acctest.grayscale0_dma.pio           84                       # Packet count per connected master and slave (bytes)
system.acctest.local_bus.pkt_count_system.acctest.mem2cls.master::system.acctest.isp0.pio           48                       # Packet count per connected master and slave (bytes)
system.acctest.local_bus.pkt_count_system.acctest.mem2cls.master::system.acctest.isp0_dma.pio           70                       # Packet count per connected master and slave (bytes)
system.acctest.local_bus.pkt_count_system.acctest.mem2cls.master::total        43828                       # Packet count per connected master and slave (bytes)
system.acctest.local_bus.pkt_count_system.acctest.canny_non_max0_dma.dma::system.acctest.canny_non_max0_spm.port        32768                       # Packet count per connected master and slave (bytes)
system.acctest.local_bus.pkt_count_system.acctest.canny_non_max0_dma.dma::system.acctest.elem_matrix2_spm.port         4096                       # Packet count per connected master and slave (bytes)
system.acctest.local_bus.pkt_count_system.acctest.canny_non_max0_dma.dma::total        36864                       # Packet count per connected master and slave (bytes)
system.acctest.local_bus.pkt_count_system.acctest.convolution0_dma.dma::system.acctest.convolution0_spm.port        40992                       # Packet count per connected master and slave (bytes)
system.acctest.local_bus.pkt_count_system.acctest.convolution0_dma.dma::system.acctest.grayscale0_spm.port         4096                       # Packet count per connected master and slave (bytes)
system.acctest.local_bus.pkt_count_system.acctest.convolution0_dma.dma::total        45088                       # Packet count per connected master and slave (bytes)
system.acctest.local_bus.pkt_count_system.acctest.convolution1_dma.dma::system.acctest.convolution1_spm.port        40992                       # Packet count per connected master and slave (bytes)
system.acctest.local_bus.pkt_count_system.acctest.convolution1_dma.dma::system.acctest.grayscale0_spm.port         4096                       # Packet count per connected master and slave (bytes)
system.acctest.local_bus.pkt_count_system.acctest.convolution1_dma.dma::total        45088                       # Packet count per connected master and slave (bytes)
system.acctest.local_bus.pkt_count_system.acctest.edge_tracking0_dma.dma::system.acctest.canny_non_max0_spm.port        16384                       # Packet count per connected master and slave (bytes)
system.acctest.local_bus.pkt_count_system.acctest.edge_tracking0_dma.dma::system.acctest.edge_tracking0_spm.port        20480                       # Packet count per connected master and slave (bytes)
system.acctest.local_bus.pkt_count_system.acctest.edge_tracking0_dma.dma::total        36864                       # Packet count per connected master and slave (bytes)
system.acctest.local_bus.pkt_count_system.acctest.elem_matrix0_dma.dma::system.acctest.elem_matrix0_spm.port      1536000                       # Packet count per connected master and slave (bytes)
system.acctest.local_bus.pkt_count_system.acctest.elem_matrix0_dma.dma::system.acctest.elem_matrix1_spm.port        49152                       # Packet count per connected master and slave (bytes)
system.acctest.local_bus.pkt_count_system.acctest.elem_matrix0_dma.dma::system.acctest.elem_matrix2_spm.port        69632                       # Packet count per connected master and slave (bytes)
system.acctest.local_bus.pkt_count_system.acctest.elem_matrix0_dma.dma::system.acctest.elem_matrix3_spm.port        69632                       # Packet count per connected master and slave (bytes)
system.acctest.local_bus.pkt_count_system.acctest.elem_matrix0_dma.dma::total      1724416                       # Packet count per connected master and slave (bytes)
system.acctest.local_bus.pkt_count_system.acctest.elem_matrix1_dma.dma::system.acctest.elem_matrix0_spm.port        49152                       # Packet count per connected master and slave (bytes)
system.acctest.local_bus.pkt_count_system.acctest.elem_matrix1_dma.dma::system.acctest.elem_matrix1_spm.port      1548288                       # Packet count per connected master and slave (bytes)
system.acctest.local_bus.pkt_count_system.acctest.elem_matrix1_dma.dma::system.acctest.elem_matrix2_spm.port        57344                       # Packet count per connected master and slave (bytes)
system.acctest.local_bus.pkt_count_system.acctest.elem_matrix1_dma.dma::system.acctest.elem_matrix3_spm.port        86016                       # Packet count per connected master and slave (bytes)
system.acctest.local_bus.pkt_count_system.acctest.elem_matrix1_dma.dma::total      1740800                       # Packet count per connected master and slave (bytes)
system.acctest.local_bus.pkt_count_system.acctest.elem_matrix2_dma.dma::system.acctest.elem_matrix0_spm.port        61440                       # Packet count per connected master and slave (bytes)
system.acctest.local_bus.pkt_count_system.acctest.elem_matrix2_dma.dma::system.acctest.elem_matrix1_spm.port        69632                       # Packet count per connected master and slave (bytes)
system.acctest.local_bus.pkt_count_system.acctest.elem_matrix2_dma.dma::system.acctest.elem_matrix2_spm.port      1531904                       # Packet count per connected master and slave (bytes)
system.acctest.local_bus.pkt_count_system.acctest.elem_matrix2_dma.dma::system.acctest.elem_matrix3_spm.port        49152                       # Packet count per connected master and slave (bytes)
system.acctest.local_bus.pkt_count_system.acctest.elem_matrix2_dma.dma::total      1712128                       # Packet count per connected master and slave (bytes)
system.acctest.local_bus.pkt_count_system.acctest.elem_matrix3_dma.dma::system.acctest.elem_matrix0_spm.port        69632                       # Packet count per connected master and slave (bytes)
system.acctest.local_bus.pkt_count_system.acctest.elem_matrix3_dma.dma::system.acctest.elem_matrix1_spm.port        61440                       # Packet count per connected master and slave (bytes)
system.acctest.local_bus.pkt_count_system.acctest.elem_matrix3_dma.dma::system.acctest.elem_matrix2_spm.port        57344                       # Packet count per connected master and slave (bytes)
system.acctest.local_bus.pkt_count_system.acctest.elem_matrix3_dma.dma::system.acctest.elem_matrix3_spm.port      1540096                       # Packet count per connected master and slave (bytes)
system.acctest.local_bus.pkt_count_system.acctest.elem_matrix3_dma.dma::total      1728512                       # Packet count per connected master and slave (bytes)
system.acctest.local_bus.pkt_count_system.acctest.grayscale0_dma.dma::system.acctest.grayscale0_spm.port        20480                       # Packet count per connected master and slave (bytes)
system.acctest.local_bus.pkt_count_system.acctest.grayscale0_dma.dma::system.acctest.isp0_spm.port         9216                       # Packet count per connected master and slave (bytes)
system.acctest.local_bus.pkt_count_system.acctest.grayscale0_dma.dma::total        29696                       # Packet count per connected master and slave (bytes)
system.acctest.local_bus.pkt_count_system.acctest.isp0_dma.dma::system.acctest.isp0_spm.port         7304                       # Packet count per connected master and slave (bytes)
system.acctest.local_bus.pkt_count_system.acctest.isp0_dma.dma::total         7304                       # Packet count per connected master and slave (bytes)
system.acctest.local_bus.pkt_count::total      7150588                       # Packet count per connected master and slave (bytes)
system.acctest.local_bus.pkt_size_system.acctest.mem2cls.master::system.acctest.canny_non_max0.pio           60                       # Cumulative packet size per connected master and slave (bytes)
system.acctest.local_bus.pkt_size_system.acctest.mem2cls.master::system.acctest.canny_non_max0_dma.pio          176                       # Cumulative packet size per connected master and slave (bytes)
system.acctest.local_bus.pkt_size_system.acctest.mem2cls.master::system.acctest.convolution0.pio          168                       # Cumulative packet size per connected master and slave (bytes)
system.acctest.local_bus.pkt_size_system.acctest.mem2cls.master::system.acctest.convolution0_dma.pio          352                       # Cumulative packet size per connected master and slave (bytes)
system.acctest.local_bus.pkt_size_system.acctest.mem2cls.master::system.acctest.convolution1.pio          168                       # Cumulative packet size per connected master and slave (bytes)
system.acctest.local_bus.pkt_size_system.acctest.mem2cls.master::system.acctest.convolution1_dma.pio          352                       # Cumulative packet size per connected master and slave (bytes)
system.acctest.local_bus.pkt_size_system.acctest.mem2cls.master::system.acctest.edge_tracking0.pio           92                       # Cumulative packet size per connected master and slave (bytes)
system.acctest.local_bus.pkt_size_system.acctest.mem2cls.master::system.acctest.edge_tracking0_dma.pio          176                       # Cumulative packet size per connected master and slave (bytes)
system.acctest.local_bus.pkt_size_system.acctest.mem2cls.master::system.acctest.elem_matrix0.pio         6006                       # Cumulative packet size per connected master and slave (bytes)
system.acctest.local_bus.pkt_size_system.acctest.mem2cls.master::system.acctest.elem_matrix0_dma.pio         8250                       # Cumulative packet size per connected master and slave (bytes)
system.acctest.local_bus.pkt_size_system.acctest.mem2cls.master::system.acctest.elem_matrix1.pio         5852                       # Cumulative packet size per connected master and slave (bytes)
system.acctest.local_bus.pkt_size_system.acctest.mem2cls.master::system.acctest.elem_matrix1_dma.pio         8316                       # Cumulative packet size per connected master and slave (bytes)
system.acctest.local_bus.pkt_size_system.acctest.mem2cls.master::system.acctest.elem_matrix2.pio         5940                       # Cumulative packet size per connected master and slave (bytes)
system.acctest.local_bus.pkt_size_system.acctest.mem2cls.master::system.acctest.elem_matrix2_dma.pio         8228                       # Cumulative packet size per connected master and slave (bytes)
system.acctest.local_bus.pkt_size_system.acctest.mem2cls.master::system.acctest.elem_matrix3.pio         5874                       # Cumulative packet size per connected master and slave (bytes)
system.acctest.local_bus.pkt_size_system.acctest.mem2cls.master::system.acctest.elem_matrix3_dma.pio         8272                       # Cumulative packet size per connected master and slave (bytes)
system.acctest.local_bus.pkt_size_system.acctest.mem2cls.master::system.acctest.grayscale0.pio           44                       # Cumulative packet size per connected master and slave (bytes)
system.acctest.local_bus.pkt_size_system.acctest.mem2cls.master::system.acctest.grayscale0_dma.pio          132                       # Cumulative packet size per connected master and slave (bytes)
system.acctest.local_bus.pkt_size_system.acctest.mem2cls.master::system.acctest.isp0.pio           60                       # Cumulative packet size per connected master and slave (bytes)
system.acctest.local_bus.pkt_size_system.acctest.mem2cls.master::system.acctest.isp0_dma.pio          110                       # Cumulative packet size per connected master and slave (bytes)
system.acctest.local_bus.pkt_size_system.acctest.mem2cls.master::total        58628                       # Cumulative packet size per connected master and slave (bytes)
system.acctest.local_bus.pkt_size_system.acctest.canny_non_max0_dma.dma::system.acctest.canny_non_max0_spm.port       524288                       # Cumulative packet size per connected master and slave (bytes)
system.acctest.local_bus.pkt_size_system.acctest.canny_non_max0_dma.dma::system.acctest.elem_matrix2_spm.port        65536                       # Cumulative packet size per connected master and slave (bytes)
system.acctest.local_bus.pkt_size_system.acctest.canny_non_max0_dma.dma::total       589824                       # Cumulative packet size per connected master and slave (bytes)
system.acctest.local_bus.pkt_size_system.acctest.convolution0_dma.dma::system.acctest.convolution0_spm.port       655704                       # Cumulative packet size per connected master and slave (bytes)
system.acctest.local_bus.pkt_size_system.acctest.convolution0_dma.dma::system.acctest.grayscale0_spm.port        65536                       # Cumulative packet size per connected master and slave (bytes)
system.acctest.local_bus.pkt_size_system.acctest.convolution0_dma.dma::total       721240                       # Cumulative packet size per connected master and slave (bytes)
system.acctest.local_bus.pkt_size_system.acctest.convolution1_dma.dma::system.acctest.convolution1_spm.port       655704                       # Cumulative packet size per connected master and slave (bytes)
system.acctest.local_bus.pkt_size_system.acctest.convolution1_dma.dma::system.acctest.grayscale0_spm.port        65536                       # Cumulative packet size per connected master and slave (bytes)
system.acctest.local_bus.pkt_size_system.acctest.convolution1_dma.dma::total       721240                       # Cumulative packet size per connected master and slave (bytes)
system.acctest.local_bus.pkt_size_system.acctest.edge_tracking0_dma.dma::system.acctest.canny_non_max0_spm.port       262144                       # Cumulative packet size per connected master and slave (bytes)
system.acctest.local_bus.pkt_size_system.acctest.edge_tracking0_dma.dma::system.acctest.edge_tracking0_spm.port       327680                       # Cumulative packet size per connected master and slave (bytes)
system.acctest.local_bus.pkt_size_system.acctest.edge_tracking0_dma.dma::total       589824                       # Cumulative packet size per connected master and slave (bytes)
system.acctest.local_bus.pkt_size_system.acctest.elem_matrix0_dma.dma::system.acctest.elem_matrix0_spm.port     24576000                       # Cumulative packet size per connected master and slave (bytes)
system.acctest.local_bus.pkt_size_system.acctest.elem_matrix0_dma.dma::system.acctest.elem_matrix1_spm.port       786432                       # Cumulative packet size per connected master and slave (bytes)
system.acctest.local_bus.pkt_size_system.acctest.elem_matrix0_dma.dma::system.acctest.elem_matrix2_spm.port      1114112                       # Cumulative packet size per connected master and slave (bytes)
system.acctest.local_bus.pkt_size_system.acctest.elem_matrix0_dma.dma::system.acctest.elem_matrix3_spm.port      1114112                       # Cumulative packet size per connected master and slave (bytes)
system.acctest.local_bus.pkt_size_system.acctest.elem_matrix0_dma.dma::total     27590656                       # Cumulative packet size per connected master and slave (bytes)
system.acctest.local_bus.pkt_size_system.acctest.elem_matrix1_dma.dma::system.acctest.elem_matrix0_spm.port       786432                       # Cumulative packet size per connected master and slave (bytes)
system.acctest.local_bus.pkt_size_system.acctest.elem_matrix1_dma.dma::system.acctest.elem_matrix1_spm.port     24772608                       # Cumulative packet size per connected master and slave (bytes)
system.acctest.local_bus.pkt_size_system.acctest.elem_matrix1_dma.dma::system.acctest.elem_matrix2_spm.port       917504                       # Cumulative packet size per connected master and slave (bytes)
system.acctest.local_bus.pkt_size_system.acctest.elem_matrix1_dma.dma::system.acctest.elem_matrix3_spm.port      1376256                       # Cumulative packet size per connected master and slave (bytes)
system.acctest.local_bus.pkt_size_system.acctest.elem_matrix1_dma.dma::total     27852800                       # Cumulative packet size per connected master and slave (bytes)
system.acctest.local_bus.pkt_size_system.acctest.elem_matrix2_dma.dma::system.acctest.elem_matrix0_spm.port       983040                       # Cumulative packet size per connected master and slave (bytes)
system.acctest.local_bus.pkt_size_system.acctest.elem_matrix2_dma.dma::system.acctest.elem_matrix1_spm.port      1114112                       # Cumulative packet size per connected master and slave (bytes)
system.acctest.local_bus.pkt_size_system.acctest.elem_matrix2_dma.dma::system.acctest.elem_matrix2_spm.port     24510464                       # Cumulative packet size per connected master and slave (bytes)
system.acctest.local_bus.pkt_size_system.acctest.elem_matrix2_dma.dma::system.acctest.elem_matrix3_spm.port       786432                       # Cumulative packet size per connected master and slave (bytes)
system.acctest.local_bus.pkt_size_system.acctest.elem_matrix2_dma.dma::total     27394048                       # Cumulative packet size per connected master and slave (bytes)
system.acctest.local_bus.pkt_size_system.acctest.elem_matrix3_dma.dma::system.acctest.elem_matrix0_spm.port      1114112                       # Cumulative packet size per connected master and slave (bytes)
system.acctest.local_bus.pkt_size_system.acctest.elem_matrix3_dma.dma::system.acctest.elem_matrix1_spm.port       983040                       # Cumulative packet size per connected master and slave (bytes)
system.acctest.local_bus.pkt_size_system.acctest.elem_matrix3_dma.dma::system.acctest.elem_matrix2_spm.port       917504                       # Cumulative packet size per connected master and slave (bytes)
system.acctest.local_bus.pkt_size_system.acctest.elem_matrix3_dma.dma::system.acctest.elem_matrix3_spm.port     24641536                       # Cumulative packet size per connected master and slave (bytes)
system.acctest.local_bus.pkt_size_system.acctest.elem_matrix3_dma.dma::total     27656192                       # Cumulative packet size per connected master and slave (bytes)
system.acctest.local_bus.pkt_size_system.acctest.grayscale0_dma.dma::system.acctest.grayscale0_spm.port       327680                       # Cumulative packet size per connected master and slave (bytes)
system.acctest.local_bus.pkt_size_system.acctest.grayscale0_dma.dma::system.acctest.isp0_spm.port       147456                       # Cumulative packet size per connected master and slave (bytes)
system.acctest.local_bus.pkt_size_system.acctest.grayscale0_dma.dma::total       475136                       # Cumulative packet size per connected master and slave (bytes)
system.acctest.local_bus.pkt_size_system.acctest.isp0_dma.dma::system.acctest.isp0_spm.port       116752                       # Cumulative packet size per connected master and slave (bytes)
system.acctest.local_bus.pkt_size_system.acctest.isp0_dma.dma::total       116752                       # Cumulative packet size per connected master and slave (bytes)
system.acctest.local_bus.pkt_size::total    113766340                       # Cumulative packet size per connected master and slave (bytes)
system.acctest.local_bus.occupancy        11445202750                       # Network occupancy (ticks)
system.acctest.local_bus.utilization             44.3                       # Network utilization (%)
system.acctest.local_bus.reqLayer0.occupancy   9699990579                       # Layer occupancy (ticks)
system.acctest.local_bus.reqLayer0.utilization         37.5                       # Layer utilization (%)
system.acctest.local_bus.respLayer0.occupancy   5786110000                       # Layer occupancy (ticks)
system.acctest.local_bus.respLayer0.utilization         22.4                       # Layer utilization (%)
system.acctest.isp0.pwrStateResidencyTicks::UNDEFINED  54782352500                       # Cumulative time (in ticks) in various power states
system.acctest.edge_tracking0.pwrStateResidencyTicks::UNDEFINED  54782352500                       # Cumulative time (in ticks) in various power states
system.acctest.grayscale0_spm.pwrStateResidencyTicks::UNDEFINED  54782352500                       # Cumulative time (in ticks) in various power states
system.acctest.grayscale0_spm.bytes_read::.acctest.convolution0_dma        65536                       # Number of bytes read from this memory
system.acctest.grayscale0_spm.bytes_read::.acctest.convolution1_dma        65536                       # Number of bytes read from this memory
system.acctest.grayscale0_spm.bytes_read::.acctest.grayscale0.system.acctest.grayscale0       196608                       # Number of bytes read from this memory
system.acctest.grayscale0_spm.bytes_read::.acctest.grayscale0_dma       131072                       # Number of bytes read from this memory
system.acctest.grayscale0_spm.bytes_read::total       458752                       # Number of bytes read from this memory
system.acctest.grayscale0_spm.bytes_written::.acctest.grayscale0.system.acctest.grayscale0       262144                       # Number of bytes written to this memory
system.acctest.grayscale0_spm.bytes_written::.acctest.grayscale0_dma       196608                       # Number of bytes written to this memory
system.acctest.grayscale0_spm.bytes_written::total       458752                       # Number of bytes written to this memory
system.acctest.grayscale0_spm.num_reads::.acctest.convolution0_dma         2048                       # Number of read requests responded to by this memory
system.acctest.grayscale0_spm.num_reads::.acctest.convolution1_dma         2048                       # Number of read requests responded to by this memory
system.acctest.grayscale0_spm.num_reads::.acctest.grayscale0.system.acctest.grayscale0       196608                       # Number of read requests responded to by this memory
system.acctest.grayscale0_spm.num_reads::.acctest.grayscale0_dma         4096                       # Number of read requests responded to by this memory
system.acctest.grayscale0_spm.num_reads::total       204800                       # Number of read requests responded to by this memory
system.acctest.grayscale0_spm.num_writes::.acctest.grayscale0.system.acctest.grayscale0        65536                       # Number of write requests responded to by this memory
system.acctest.grayscale0_spm.num_writes::.acctest.grayscale0_dma         6144                       # Number of write requests responded to by this memory
system.acctest.grayscale0_spm.num_writes::total        71680                       # Number of write requests responded to by this memory
system.acctest.grayscale0_spm.bw_read::.acctest.convolution0_dma      2533922                       # Total read bandwidth from this memory (bytes/s)
system.acctest.grayscale0_spm.bw_read::.acctest.convolution1_dma      2533922                       # Total read bandwidth from this memory (bytes/s)
system.acctest.grayscale0_spm.bw_read::.acctest.grayscale0.system.acctest.grayscale0      7601767                       # Total read bandwidth from this memory (bytes/s)
system.acctest.grayscale0_spm.bw_read::.acctest.grayscale0_dma      5067845                       # Total read bandwidth from this memory (bytes/s)
system.acctest.grayscale0_spm.bw_read::total     17737457                       # Total read bandwidth from this memory (bytes/s)
system.acctest.grayscale0_spm.bw_write::.acctest.grayscale0.system.acctest.grayscale0     10135690                       # Write bandwidth from this memory (bytes/s)
system.acctest.grayscale0_spm.bw_write::.acctest.grayscale0_dma      7601767                       # Write bandwidth from this memory (bytes/s)
system.acctest.grayscale0_spm.bw_write::total     17737457                       # Write bandwidth from this memory (bytes/s)
system.acctest.grayscale0_spm.bw_total::.acctest.convolution0_dma      2533922                       # Total bandwidth to/from this memory (bytes/s)
system.acctest.grayscale0_spm.bw_total::.acctest.convolution1_dma      2533922                       # Total bandwidth to/from this memory (bytes/s)
system.acctest.grayscale0_spm.bw_total::.acctest.grayscale0.system.acctest.grayscale0     17737457                       # Total bandwidth to/from this memory (bytes/s)
system.acctest.grayscale0_spm.bw_total::.acctest.grayscale0_dma     12669612                       # Total bandwidth to/from this memory (bytes/s)
system.acctest.grayscale0_spm.bw_total::total     35474914                       # Total bandwidth to/from this memory (bytes/s)
system.acctest.elem_matrix1_dma.pwrStateResidencyTicks::UNDEFINED  54782352500                       # Cumulative time (in ticks) in various power states
system.acctest.mem2cls.pwrStateResidencyTicks::UNDEFINED  54782352500                       # Cumulative time (in ticks) in various power states
system.acctest.isp0_dma.pwrStateResidencyTicks::UNDEFINED  54782352500                       # Cumulative time (in ticks) in various power states
system.acctest.grayscale0_dma.pwrStateResidencyTicks::UNDEFINED  54782352500                       # Cumulative time (in ticks) in various power states
system.acctest.convolution0.pwrStateResidencyTicks::UNDEFINED  54782352500                       # Cumulative time (in ticks) in various power states
system.acctest.convolution1.pwrStateResidencyTicks::UNDEFINED  54782352500                       # Cumulative time (in ticks) in various power states
system.acctest.isp0_spm.pwrStateResidencyTicks::UNDEFINED  54782352500                       # Cumulative time (in ticks) in various power states
system.acctest.isp0_spm.bytes_read::.acctest.grayscale0_dma       147456                       # Number of bytes read from this memory
system.acctest.isp0_spm.bytes_read::.acctest.isp0.system.acctest.isp0       458752                       # Number of bytes read from this memory
system.acctest.isp0_spm.bytes_read::.acctest.isp0_dma        49152                       # Number of bytes read from this memory
system.acctest.isp0_spm.bytes_read::total       655360                       # Number of bytes read from this memory
system.acctest.isp0_spm.bytes_written::.acctest.isp0.system.acctest.isp0       196608                       # Number of bytes written to this memory
system.acctest.isp0_spm.bytes_written::.acctest.isp0_dma        67600                       # Number of bytes written to this memory
system.acctest.isp0_spm.bytes_written::total       264208                       # Number of bytes written to this memory
system.acctest.isp0_spm.num_reads::.acctest.grayscale0_dma         4608                       # Number of read requests responded to by this memory
system.acctest.isp0_spm.num_reads::.acctest.isp0.system.acctest.isp0       458752                       # Number of read requests responded to by this memory
[...]
system.cpu.icache.tags.warmup_cycle                 0                       # Cycle when the warmup percentage was hit.
system.cpu.icache.tags.occ_blocks::.cpu.inst   441.773161                       # Average occupied blocks per requestor
system.cpu.icache.tags.occ_percent::.cpu.inst     0.862838                       # Average percentage of cache occupancy
system.cpu.icache.tags.occ_percent::total     0.862838                       # Average percentage of cache occupancy
system.cpu.icache.tags.occ_task_id_blocks::1024          443                       # Occupied blocks per task id
system.cpu.icache.tags.age_task_id_blocks_1024::0            6                       # Occupied blocks per task id
system.cpu.icache.tags.age_task_id_blocks_1024::2            3                       # Occupied blocks per task id
system.cpu.icache.tags.age_task_id_blocks_1024::3           26                       # Occupied blocks per task id
system.cpu.icache.tags.age_task_id_blocks_1024::4          408                       # Occupied blocks per task id
system.cpu.icache.tags.occ_task_id_percent::1024     0.865234                       # Percentage of cache occupancy per task id
system.cpu.icache.tags.tag_accesses          11374471                       # Number of tag accesses
system.cpu.icache.tags.data_accesses         11374471                       # Number of data accesses
system.cpu.dtb.walker.pwrStateResidencyTicks::UNDEFINED  54782573125                       # Cumulative time (in ticks) in various power states
system.cpu.dtb.stage2_mmu.stage2_tlb.walker.pwrStateResidencyTicks::UNDEFINED  54782573125                       # Cumulative time (in ticks) in various power states
system.cpu.dcache.pwrStateResidencyTicks::UNDEFINED  54782573125                       # Cumulative time (in ticks) in various power states
system.cpu.dcache.demand_hits::.cpu.data      1094789                       # number of demand (read+write) hits
system.cpu.dcache.demand_hits::total          1094789                       # number of demand (read+write) hits
system.cpu.dcache.overall_hits::.cpu.data      1094789                       # number of overall hits
system.cpu.dcache.overall_hits::total         1094789                       # number of overall hits
system.cpu.dcache.demand_misses::.cpu.data         5170                       # number of demand (read+write) misses
system.cpu.dcache.demand_misses::total           5170                       # number of demand (read+write) misses
system.cpu.dcache.overall_misses::.cpu.data         5170                       # number of overall misses
system.cpu.dcache.overall_misses::total          5170                       # number of overall misses
system.cpu.dcache.demand_miss_latency::.cpu.data    548149500                       # number of demand (read+write) miss cycles
system.cpu.dcache.demand_miss_latency::total    548149500                       # number of demand (read+write) miss cycles
system.cpu.dcache.overall_miss_latency::.cpu.data    548149500                       # number of overall miss cycles
system.cpu.dcache.overall_miss_latency::total    548149500                       # number of overall miss cycles
system.cpu.dcache.demand_accesses::.cpu.data      1099959                       # number of demand (read+write) accesses
system.cpu.dcache.demand_accesses::total      1099959                       # number of demand (read+write) accesses
system.cpu.dcache.overall_accesses::.cpu.data      1099959                       # number of overall (read+write) accesses
system.cpu.dcache.overall_accesses::total      1099959                       # number of overall (read+write) accesses
system.cpu.dcache.demand_miss_rate::.cpu.data     0.004700                       # miss rate for demand accesses
system.cpu.dcache.demand_miss_rate::total     0.004700                       # miss rate for demand accesses
system.cpu.dcache.overall_miss_rate::.cpu.data     0.004700                       # miss rate for overall accesses
system.cpu.dcache.overall_miss_rate::total     0.004700                       # miss rate for overall accesses
system.cpu.dcache.demand_avg_miss_latency::.cpu.data 106025.048356                       # average overall miss latency
system.cpu.dcache.demand_avg_miss_latency::total 106025.048356                       # average overall miss latency
system.cpu.dcache.overall_avg_miss_latency::.cpu.data 106025.048356                       # average overall miss latency
system.cpu.dcache.overall_avg_miss_latency::total 106025.048356                       # average overall miss latency
system.cpu.dcache.blocked_cycles::no_mshrs            0                       # number of cycles access was blocked
system.cpu.dcache.blocked_cycles::no_targets            0                       # number of cycles access was blocked
system.cpu.dcache.blocked::no_mshrs                 0                       # number of cycles access was blocked
system.cpu.dcache.blocked::no_targets               0                       # number of cycles access was blocked
system.cpu.dcache.avg_blocked_cycles::no_mshrs          nan                       # average number of cycles each access was blocked
system.cpu.dcache.avg_blocked_cycles::no_targets          nan                       # average number of cycles each access was blocked
system.cpu.dcache.writebacks::.writebacks         2797                       # number of writebacks
system.cpu.dcache.writebacks::total              2797                       # number of writebacks
system.cpu.dcache.demand_mshr_hits::.cpu.data         1053                       # number of demand (read+write) MSHR hits
system.cpu.dcache.demand_mshr_hits::total         1053                       # number of demand (read+write) MSHR hits
system.cpu.dcache.overall_mshr_hits::.cpu.data         1053                       # number of overall MSHR hits
system.cpu.dcache.overall_mshr_hits::total         1053                       # number of overall MSHR hits
system.cpu.dcache.demand_mshr_misses::.cpu.data         4117                       # number of demand (read+write) MSHR misses
system.cpu.dcache.demand_mshr_misses::total         4117                       # number of demand (read+write) MSHR misses
system.cpu.dcache.overall_mshr_misses::.cpu.data         4117                       # number of overall MSHR misses
system.cpu.dcache.overall_mshr_misses::total         4117                       # number of overall MSHR misses
system.cpu.dcache.overall_mshr_uncacheable_misses::.cpu.data        27246                       # number of overall MSHR uncacheable misses
system.cpu.dcache.overall_mshr_uncacheable_misses::total        27246                       # number of overall MSHR uncacheable misses
system.cpu.dcache.demand_mshr_miss_latency::.cpu.data    429472625                       # number of demand (read+write) MSHR miss cycles
system.cpu.dcache.demand_mshr_miss_latency::total    429472625                       # number of demand (read+write) MSHR miss cycles
system.cpu.dcache.overall_mshr_miss_latency::.cpu.data    429472625                       # number of overall MSHR miss cycles
system.cpu.dcache.overall_mshr_miss_latency::total    429472625                       # number of overall MSHR miss cycles
system.cpu.dcache.overall_mshr_uncacheable_latency::.cpu.data     57824625                       # number of overall MSHR uncacheable cycles
system.cpu.dcache.overall_mshr_uncacheable_latency::total     57824625                       # number of overall MSHR uncacheable cycles
system.cpu.dcache.demand_mshr_miss_rate::.cpu.data     0.003743                       # mshr miss rate for demand accesses
system.cpu.dcache.demand_mshr_miss_rate::total     0.003743                       # mshr miss rate for demand accesses
system.cpu.dcache.overall_mshr_miss_rate::.cpu.data     0.003743                       # mshr miss rate for overall accesses
system.cpu.dcache.overall_mshr_miss_rate::total     0.003743                       # mshr miss rate for overall accesses
system.cpu.dcache.demand_avg_mshr_miss_latency::.cpu.data 104316.887297                       # average overall mshr miss latency
system.cpu.dcache.demand_avg_mshr_miss_latency::total 104316.887297                       # average overall mshr miss latency
system.cpu.dcache.overall_avg_mshr_miss_latency::.cpu.data 104316.887297                       # average overall mshr miss latency
system.cpu.dcache.overall_avg_mshr_miss_latency::total 104316.887297                       # average overall mshr miss latency
system.cpu.dcache.overall_avg_mshr_uncacheable_latency::.cpu.data  2122.316120                       # average overall mshr uncacheable latency
system.cpu.dcache.overall_avg_mshr_uncacheable_latency::total  2122.316120                       # average overall mshr uncacheable latency
system.cpu.dcache.replacements                   4118                       # number of replacements
system.cpu.dcache.ReadReq_hits::.cpu.data       712827                       # number of ReadReq hits
system.cpu.dcache.ReadReq_hits::total          712827                       # number of ReadReq hits
system.cpu.dcache.ReadReq_misses::.cpu.data         3136                       # number of ReadReq misses
system.cpu.dcache.ReadReq_misses::total          3136                       # number of ReadReq misses
system.cpu.dcache.ReadReq_miss_latency::.cpu.data    334211000                       # number of ReadReq miss cycles
system.cpu.dcache.ReadReq_miss_latency::total    334211000                       # number of ReadReq miss cycles
system.cpu.dcache.ReadReq_accesses::.cpu.data       715963                       # number of ReadReq accesses(hits+misses)
system.cpu.dcache.ReadReq_accesses::total       715963                       # number of ReadReq accesses(hits+misses)
system.cpu.dcache.ReadReq_miss_rate::.cpu.data     0.004380                       # miss rate for ReadReq accesses
system.cpu.dcache.ReadReq_miss_rate::total     0.004380                       # miss rate for ReadReq accesses
system.cpu.dcache.ReadReq_avg_miss_latency::.cpu.data 106572.385204                       # average ReadReq miss latency
system.cpu.dcache.ReadReq_avg_miss_latency::total 106572.385204                       # average ReadReq miss latency
system.cpu.dcache.ReadReq_mshr_hits::.cpu.data           54                       # number of ReadReq MSHR hits
system.cpu.dcache.ReadReq_mshr_hits::total           54                       # number of ReadReq MSHR hits
system.cpu.dcache.ReadReq_mshr_misses::.cpu.data         3082                       # number of ReadReq MSHR misses
system.cpu.dcache.ReadReq_mshr_misses::total         3082                       # number of ReadReq MSHR misses
system.cpu.dcache.ReadReq_mshr_uncacheable::.cpu.data         2666                       # number of ReadReq MSHR uncacheable
system.cpu.dcache.ReadReq_mshr_uncacheable::total         2666                       # number of ReadReq MSHR uncacheable
system.cpu.dcache.ReadReq_mshr_miss_latency::.cpu.data    323613875                       # number of ReadReq MSHR miss cycles
system.cpu.dcache.ReadReq_mshr_miss_latency::total    323613875                       # number of ReadReq MSHR miss cycles
system.cpu.dcache.ReadReq_mshr_uncacheable_latency::.cpu.data     57824625                       # number of ReadReq MSHR uncacheable cycles
system.cpu.dcache.ReadReq_mshr_uncacheable_latency::total     57824625                       # number of ReadReq MSHR uncacheable cycles
system.cpu.dcache.ReadReq_mshr_miss_rate::.cpu.data     0.004305                       # mshr miss rate for ReadReq accesses
system.cpu.dcache.ReadReq_mshr_miss_rate::total     0.004305                       # mshr miss rate for ReadReq accesses
system.cpu.dcache.ReadReq_avg_mshr_miss_latency::.cpu.data 105001.257300                       # average ReadReq mshr miss latency
system.cpu.dcache.ReadReq_avg_mshr_miss_latency::total 105001.257300                       # average ReadReq mshr miss latency
system.cpu.dcache.ReadReq_avg_mshr_uncacheable_latency::.cpu.data 21689.656789                       # average ReadReq mshr uncacheable latency
system.cpu.dcache.ReadReq_avg_mshr_uncacheable_latency::total 21689.656789                       # average ReadReq mshr uncacheable latency
system.cpu.dcache.WriteReq_hits::.cpu.data       381962                       # number of WriteReq hits
system.cpu.dcache.WriteReq_hits::total         381962                       # number of WriteReq hits
system.cpu.dcache.WriteReq_misses::.cpu.data         2034                       # number of WriteReq misses
system.cpu.dcache.WriteReq_misses::total         2034                       # number of WriteReq misses
system.cpu.dcache.WriteReq_miss_latency::.cpu.data    213938500                       # number of WriteReq miss cycles
system.cpu.dcache.WriteReq_miss_latency::total    213938500                       # number of WriteReq miss cycles
system.cpu.dcache.WriteReq_accesses::.cpu.data       383996                       # number of WriteReq accesses(hits+misses)
system.cpu.dcache.WriteReq_accesses::total       383996                       # number of WriteReq accesses(hits+misses)
system.cpu.dcache.WriteReq_miss_rate::.cpu.data     0.005297                       # miss rate for WriteReq accesses
system.cpu.dcache.WriteReq_miss_rate::total     0.005297                       # miss rate for WriteReq accesses
system.cpu.dcache.WriteReq_avg_miss_latency::.cpu.data 105181.170108                       # average WriteReq miss latency
system.cpu.dcache.WriteReq_avg_miss_latency::total 105181.170108                       # average WriteReq miss latency
system.cpu.dcache.WriteReq_mshr_hits::.cpu.data          999                       # number of WriteReq MSHR hits
system.cpu.dcache.WriteReq_mshr_hits::total          999                       # number of WriteReq MSHR hits
system.cpu.dcache.WriteReq_mshr_misses::.cpu.data         1035                       # number of WriteReq MSHR misses
system.cpu.dcache.WriteReq_mshr_misses::total         1035                       # number of WriteReq MSHR misses
system.cpu.dcache.WriteReq_mshr_uncacheable::.cpu.data        24580                       # number of WriteReq MSHR uncacheable
system.cpu.dcache.WriteReq_mshr_uncacheable::total        24580                       # number of WriteReq MSHR uncacheable
system.cpu.dcache.WriteReq_mshr_miss_latency::.cpu.data    105858750                       # number of WriteReq MSHR miss cycles
system.cpu.dcache.WriteReq_mshr_miss_latency::total    105858750                       # number of WriteReq MSHR miss cycles
system.cpu.dcache.WriteReq_mshr_miss_rate::.cpu.data     0.002695                       # mshr miss rate for WriteReq accesses
system.cpu.dcache.WriteReq_mshr_miss_rate::total     0.002695                       # mshr miss rate for WriteReq accesses
system.cpu.dcache.WriteReq_avg_mshr_miss_latency::.cpu.data 102278.985507                       # average WriteReq mshr miss latency
system.cpu.dcache.WriteReq_avg_mshr_miss_latency::total 102278.985507                       # average WriteReq mshr miss latency
system.cpu.dcache.CleanInvalidReq_mshr_misses::.cpu.data      1382964                       # number of CleanInvalidReq MSHR misses
system.cpu.dcache.CleanInvalidReq_mshr_misses::total      1382964                       # number of CleanInvalidReq MSHR misses
system.cpu.dcache.CleanInvalidReq_mshr_miss_latency::.cpu.data  14451608625                       # number of CleanInvalidReq MSHR miss cycles
system.cpu.dcache.CleanInvalidReq_mshr_miss_latency::total  14451608625                       # number of CleanInvalidReq MSHR miss cycles
system.cpu.dcache.CleanInvalidReq_mshr_miss_rate::.cpu.data          inf                       # mshr miss rate for CleanInvalidReq accesses
system.cpu.dcache.CleanInvalidReq_mshr_miss_rate::total          inf                       # mshr miss rate for CleanInvalidReq accesses
system.cpu.dcache.CleanInvalidReq_avg_mshr_miss_latency::.cpu.data 10449.735948                       # average CleanInvalidReq mshr miss latency
system.cpu.dcache.CleanInvalidReq_avg_mshr_miss_latency::total 10449.735948                       # average CleanInvalidReq mshr miss latency
system.cpu.dcache.InvalidateReq_mshr_hits::.cpu.data       510645                       # number of InvalidateReq MSHR hits
system.cpu.dcache.InvalidateReq_mshr_hits::total       510645                       # number of InvalidateReq MSHR hits
system.cpu.dcache.InvalidateReq_mshr_misses::.cpu.data       872319                       # number of InvalidateReq MSHR misses
system.cpu.dcache.InvalidateReq_mshr_misses::total       872319                       # number of InvalidateReq MSHR misses
system.cpu.dcache.InvalidateReq_mshr_miss_latency::.cpu.data  14186033426                       # number of InvalidateReq MSHR miss cycles
system.cpu.dcache.InvalidateReq_mshr_miss_latency::total  14186033426                       # number of InvalidateReq MSHR miss cycles
system.cpu.dcache.InvalidateReq_mshr_miss_rate::.cpu.data          inf                       # mshr miss rate for InvalidateReq accesses
system.cpu.dcache.InvalidateReq_mshr_miss_rate::total          inf                       # mshr miss rate for InvalidateReq accesses
system.cpu.dcache.InvalidateReq_avg_mshr_miss_latency::.cpu.data 16262.437739                       # average InvalidateReq mshr miss latency
system.cpu.dcache.InvalidateReq_avg_mshr_miss_latency::total 16262.437739                       # average InvalidateReq mshr miss latency
system.cpu.dcache.tags.pwrStateResidencyTicks::UNDEFINED  54782573125                       # Cumulative time (in ticks) in various power states
system.cpu.dcache.tags.tagsinuse                  512                       # Cycle average of tags in use
system.cpu.dcache.tags.total_refs             1100913                       # Total number of references to valid blocks.
system.cpu.dcache.tags.sampled_refs              4630                       # Sample count of references to valid blocks.
system.cpu.dcache.tags.avg_refs            237.778186                       # Average number of references to valid blocks.
system.cpu.dcache.tags.warmup_cycle                 0                       # Cycle when the warmup percentage was hit.
system.cpu.dcache.tags.occ_blocks::.cpu.data          512                       # Average occupied blocks per requestor
system.cpu.dcache.tags.occ_percent::.cpu.data            1                       # Average percentage of cache occupancy
system.cpu.dcache.tags.occ_percent::total            1                       # Average percentage of cache occupancy
system.cpu.dcache.tags.occ_task_id_blocks::1024          512                       # Occupied blocks per task id
system.cpu.dcache.tags.age_task_id_blocks_1024::0            3                       # Occupied blocks per task id
system.cpu.dcache.tags.age_task_id_blocks_1024::2            8                       # Occupied blocks per task id
system.cpu.dcache.tags.age_task_id_blocks_1024::3          456                       # Occupied blocks per task id
system.cpu.dcache.tags.age_task_id_blocks_1024::4           45                       # Occupied blocks per task id
system.cpu.dcache.tags.occ_task_id_percent::1024            1                       # Percentage of cache occupancy per task id
system.cpu.dcache.tags.tag_accesses          15467666                       # Number of tag accesses
system.cpu.dcache.tags.data_accesses         15467666                       # Number of data accesses
system.cpu.itb.walker.pwrStateResidencyTicks::UNDEFINED  54782573125                       # Cumulative time (in ticks) in various power states
system.cpu.itb.stage2_mmu.stage2_tlb.walker.pwrStateResidencyTicks::UNDEFINED  54782573125                       # Cumulative time (in ticks) in various power states

---------- End Simulation Statistics   ----------
