gem5 Simulator System.  http://gem5.org
gem5 is copyrighted software; use the --copyright option for details.

gem5 compiled Nov  5 2021 13:21:15
gem5 started Nov 12 2021 11:55:22
gem5 executing on node4x10a.cs.rochester.edu, pid 24882
command line: /u/sgupta45/gem5-SALAM/build/ARM/gem5.opt --outdir=BM_ARM_OUT/scheduler_GLAX_harris_40 configs/SALAM/se.py --mem-size=4GB --mem-type=LPDDR3_1600_1x32 --cpu-type=ex5_LITTLE --cpu-clock=2.8GHz --caches /u/sgupta45/gem5-SALAM/benchmarks/scheduler_cpp/main GLAX resource_configs/resources.cfg dags/harris.cfg dags/harris.cfg dags/harris.cfg dags/harris.cfg dags/harris.cfg dags/harris.cfg dags/harris.cfg dags/harris.cfg dags/harris.cfg dags/harris.cfg dags/harris.cfg dags/harris.cfg dags/harris.cfg dags/harris.cfg dags/harris.cfg dags/harris.cfg dags/harris.cfg dags/harris.cfg dags/harris.cfg dags/harris.cfg dags/harris.cfg dags/harris.cfg dags/harris.cfg dags/harris.cfg dags/harris.cfg dags/harris.cfg dags/harris.cfg dags/harris.cfg dags/harris.cfg dags/harris.cfg dags/harris.cfg dags/harris.cfg dags/harris.cfg dags/harris.cfg dags/harris.cfg dags/harris.cfg dags/harris.cfg dags/harris.cfg dags/harris.cfg dags/harris.cfg

info: Standard input is not a terminal, disabling listeners.
Global frequency set at 1000000000000 ticks per second
[Total]  EnqTime/SortTime/DeqTime:  201.497/4749.586/140.198  us
[Median] EnqTime/SortTime/DeqTime:  0.280/6.597/0.195  us
exiting with last active thread context  @  14121806874
